32
Generated with pygra
C   0.19088643275082012     -0.3306250000000002   0.5399083641384589  
C   0.1908864327508199     -0.8596250000000002   0.5399083641384588  
C   0.6490138713527881     -0.595125   0.5399083641384589  
C   0.03817728655016401     -0.06612499999999998   0.10798167282769183  
C   0.8017230175534439     -1.3886249999999998   -0.3239450184830753  
C   0.8017230175534439     -0.859625   -0.3239450184830753  
C   0.3435955789514759     -1.1241249999999998   -0.3239450184830753  
C   0.6490138713527879     -1.1241249999999998   -0.7558717097938424  
C   -0.7253684444531159     0.1983749999999997   0.5399083641384589  
C   -0.7253684444531161     -0.33062500000000017   0.5399083641384588  
C   -0.26724100585114796     -0.06612500000000009   0.5399083641384589  
C   -0.878077590653772     0.4628749999999999   0.10798167282769183  
C   -0.11453185965049206     -0.8596249999999999   -0.3239450184830753  
C   -0.11453185965049206     -0.33062499999999995   -0.3239450184830753  
C   -0.57265929825246     -0.5951249999999998   -0.3239450184830753  
C   -0.2672410058511482     -0.5951249999999998   -0.7558717097938424  
C   0.19088643275082026     0.7273749999999997   0.5399083641384588  
C   0.19088643275082     0.1983749999999998   0.5399083641384588  
C   0.6490138713527882     0.4628749999999999   0.5399083641384588  
C   0.03817728655016413     0.991875   0.10798167282769178  
C   0.801723017553444     -0.3306249999999999   -0.3239450184830753  
C   0.801723017553444     0.19837500000000005   -0.3239450184830754  
C   0.343595578951476     -0.06612499999999985   -0.3239450184830753  
C   0.649013871352788     -0.06612499999999985   -0.7558717097938424  
C   -0.7253684444531157     1.2563749999999996   0.5399083641384588  
C   -0.7253684444531159     0.7273749999999997   0.5399083641384588  
C   -0.2672410058511477     0.9918749999999997   0.5399083641384588  
C   -0.8780775906537718     1.5208749999999995   0.10798167282769178  
C   -0.11453185965049206     0.19837500000000005   -0.3239450184830753  
C   -0.11453185965049206     0.7273749999999999   -0.3239450184830754  
C   -0.57265929825246     0.46287500000000015   -0.3239450184830753  
C   -0.26724100585114796     0.46287500000000015   -0.7558717097938424  
