583
Generated with pygra
C   -9.7865     -5.03940182462   0.0  
C   -9.2575     -5.03940182462   0.0  
C   -10.051     -4.58127438602   0.0  
C   -8.1995     -5.03940182462   0.0  
C   -7.6705     -5.03940182462   0.0  
C   -8.993     -4.58127438602   0.0  
C   -8.464     -4.58127438602   0.0  
C   -9.7865     -4.12314694742   0.0  
C   -9.2575     -4.12314694742   0.0  
C   -10.051     -3.66501950882   0.0  
C   -6.6125     -5.03940182462   0.0  
C   -6.0835     -5.03940182462   0.0  
C   -7.406     -4.58127438602   0.0  
C   -6.877     -4.58127438602   0.0  
C   -8.1995     -4.12314694742   0.0  
C   -7.6705     -4.12314694742   0.0  
C   -8.993     -3.66501950882   0.0  
C   -8.464     -3.66501950882   0.0  
C   -9.7865     -3.20689207021   0.0  
C   -9.2575     -3.20689207021   0.0  
C   -10.051     -2.74876463161   0.0  
C   -5.0255     -5.03940182462   0.0  
C   -4.4965     -5.03940182462   0.0  
C   -5.819     -4.58127438602   0.0  
C   -5.29     -4.58127438602   0.0  
C   -6.6125     -4.12314694742   0.0  
C   -6.0835     -4.12314694742   0.0  
C   -7.406     -3.66501950882   0.0  
C   -6.877     -3.66501950882   0.0  
C   -8.1995     -3.20689207021   0.0  
C   -7.6705     -3.20689207021   0.0  
C   -8.993     -2.74876463161   0.0  
C   -8.464     -2.74876463161   0.0  
C   -9.7865     -2.29063719301   0.0  
C   -9.2575     -2.29063719301   0.0  
C   -3.4385     -5.03940182462   0.0  
C   -2.9095     -5.03940182462   0.0  
C   -4.232     -4.58127438602   0.0  
C   -3.703     -4.58127438602   0.0  
C   -5.0255     -4.12314694742   0.0  
C   -4.4965     -4.12314694742   0.0  
C   -5.819     -3.66501950882   0.0  
C   -5.29     -3.66501950882   0.0  
C   -6.6125     -3.20689207021   0.0  
C   -6.0835     -3.20689207021   0.0  
C   -7.406     -2.74876463161   0.0  
C   -6.877     -2.74876463161   0.0  
C   -8.1995     -2.29063719301   0.0  
C   -7.6705     -2.29063719301   0.0  
C   -8.464     -1.83250975441   0.0  
C   -1.8515     -5.03940182462   0.0  
C   -1.3225     -5.03940182462   0.0  
C   -2.645     -4.58127438602   0.0  
C   -2.116     -4.58127438602   0.0  
C   -3.4385     -4.12314694742   0.0  
C   -2.9095     -4.12314694742   0.0  
C   -4.232     -3.66501950882   0.0  
C   -3.703     -3.66501950882   0.0  
C   -5.0255     -3.20689207021   0.0  
C   -4.4965     -3.20689207021   0.0  
C   -5.819     -2.74876463161   0.0  
C   -5.29     -2.74876463161   0.0  
C   -6.6125     -2.29063719301   0.0  
C   -6.0835     -2.29063719301   0.0  
C   -7.406     -1.83250975441   0.0  
C   -6.877     -1.83250975441   0.0  
C   -8.1995     -1.37438231581   0.0  
C   -7.6705     -1.37438231581   0.0  
C   -8.464     -0.916254877204   0.0  
C   -0.2645     -5.03940182462   0.0  
C   0.2645     -5.03940182462   0.0  
C   -1.058     -4.58127438602   0.0  
C   -0.529     -4.58127438602   0.0  
C   -1.8515     -4.12314694742   0.0  
C   -1.3225     -4.12314694742   0.0  
C   -2.645     -3.66501950882   0.0  
C   -2.116     -3.66501950882   0.0  
C   -3.4385     -3.20689207021   0.0  
C   -2.9095     -3.20689207021   0.0  
C   -4.232     -2.74876463161   0.0  
C   -3.703     -2.74876463161   0.0  
C   -5.0255     -2.29063719301   0.0  
C   -4.4965     -2.29063719301   0.0  
C   -5.819     -1.83250975441   0.0  
C   -5.29     -1.83250975441   0.0  
C   -6.6125     -1.37438231581   0.0  
C   -6.0835     -1.37438231581   0.0  
C   -7.406     -0.916254877204   0.0  
C   -6.877     -0.916254877204   0.0  
C   -8.1995     -0.458127438602   0.0  
C   -7.6705     -0.458127438602   0.0  
C   -8.464     -3.15454862232e-14   0.0  
C   1.3225     -5.03940182462   0.0  
C   1.8515     -5.03940182462   0.0  
C   0.529     -4.58127438602   0.0  
C   1.058     -4.58127438602   0.0  
C   -0.2645     -4.12314694742   0.0  
C   0.2645     -4.12314694742   0.0  
C   -1.058     -3.66501950882   0.0  
C   -0.529     -3.66501950882   0.0  
C   -1.8515     -3.20689207021   0.0  
C   -1.3225     -3.20689207021   0.0  
C   -2.645     -2.74876463161   0.0  
C   -2.116     -2.74876463161   0.0  
C   -3.4385     -2.29063719301   0.0  
C   -2.9095     -2.29063719301   0.0  
C   -4.232     -1.83250975441   0.0  
C   -3.703     -1.83250975441   0.0  
C   -5.0255     -1.37438231581   0.0  
C   -4.4965     -1.37438231581   0.0  
C   -5.819     -0.916254877204   0.0  
C   -5.29     -0.916254877204   0.0  
C   -6.6125     -0.458127438602   0.0  
C   -6.0835     -0.458127438602   0.0  
C   -7.406     -3.15454862232e-14   0.0  
C   -6.877     -3.15454862232e-14   0.0  
C   -8.1995     0.458127438602   0.0  
C   -7.6705     0.458127438602   0.0  
C   -8.464     0.916254877204   0.0  
C   -9.7865     1.37438231581   0.0  
C   -9.2575     1.37438231581   0.0  
C   -10.051     1.83250975441   0.0  
C   2.9095     -5.03940182462   0.0  
C   3.4385     -5.03940182462   0.0  
C   2.116     -4.58127438602   0.0  
C   2.645     -4.58127438602   0.0  
C   1.3225     -4.12314694742   0.0  
C   1.8515     -4.12314694742   0.0  
C   0.529     -3.66501950882   0.0  
C   1.058     -3.66501950882   0.0  
C   -0.2645     -3.20689207021   0.0  
C   0.2645     -3.20689207021   0.0  
C   -1.058     -2.74876463161   0.0  
C   -0.529     -2.74876463161   0.0  
C   -1.8515     -2.29063719301   0.0  
C   -1.3225     -2.29063719301   0.0  
C   -2.645     -1.83250975441   0.0  
C   -2.116     -1.83250975441   0.0  
C   -3.4385     -1.37438231581   0.0  
C   -2.9095     -1.37438231581   0.0  
C   -4.232     -0.916254877204   0.0  
C   -3.703     -0.916254877204   0.0  
C   -5.0255     -0.458127438602   0.0  
C   -4.4965     -0.458127438602   0.0  
C   -5.819     -3.15454862232e-14   0.0  
C   -5.29     -3.15454862232e-14   0.0  
C   -6.6125     0.458127438602   0.0  
C   -6.0835     0.458127438602   0.0  
C   -7.406     0.916254877204   0.0  
C   -6.877     0.916254877204   0.0  
C   -8.1995     1.37438231581   0.0  
C   -7.6705     1.37438231581   0.0  
C   -8.993     1.83250975441   0.0  
C   -8.464     1.83250975441   0.0  
C   -9.7865     2.29063719301   0.0  
C   -9.2575     2.29063719301   0.0  
C   -10.051     2.74876463161   0.0  
C   4.4965     -5.03940182462   0.0  
C   5.0255     -5.03940182462   0.0  
C   3.703     -4.58127438602   0.0  
C   4.232     -4.58127438602   0.0  
C   2.9095     -4.12314694742   0.0  
C   3.4385     -4.12314694742   0.0  
C   2.116     -3.66501950882   0.0  
C   2.645     -3.66501950882   0.0  
C   1.3225     -3.20689207021   0.0  
C   1.8515     -3.20689207021   0.0  
C   0.529     -2.74876463161   0.0  
C   1.058     -2.74876463161   0.0  
C   -0.2645     -2.29063719301   0.0  
C   0.2645     -2.29063719301   0.0  
C   -1.058     -1.83250975441   0.0  
C   -0.529     -1.83250975441   0.0  
C   -1.8515     -1.37438231581   0.0  
C   -1.3225     -1.37438231581   0.0  
C   -2.645     -0.916254877204   0.0  
C   -2.116     -0.916254877204   0.0  
C   -3.4385     -0.458127438602   0.0  
C   -2.9095     -0.458127438602   0.0  
C   -4.232     -3.15454862232e-14   0.0  
C   -3.703     -3.15454862232e-14   0.0  
C   -5.0255     0.458127438602   0.0  
C   -4.4965     0.458127438602   0.0  
C   -5.819     0.916254877204   0.0  
C   -5.29     0.916254877204   0.0  
C   -6.6125     1.37438231581   0.0  
C   -6.0835     1.37438231581   0.0  
C   -7.406     1.83250975441   0.0  
C   -6.877     1.83250975441   0.0  
C   -8.1995     2.29063719301   0.0  
C   -7.6705     2.29063719301   0.0  
C   -8.993     2.74876463161   0.0  
C   -8.464     2.74876463161   0.0  
C   -9.7865     3.20689207021   0.0  
C   -9.2575     3.20689207021   0.0  
C   -10.051     3.66501950882   0.0  
C   6.0835     -5.03940182462   0.0  
C   6.6125     -5.03940182462   0.0  
C   5.29     -4.58127438602   0.0  
C   5.819     -4.58127438602   0.0  
C   4.4965     -4.12314694742   0.0  
C   5.0255     -4.12314694742   0.0  
C   3.703     -3.66501950882   0.0  
C   4.232     -3.66501950882   0.0  
C   2.9095     -3.20689207021   0.0  
C   3.4385     -3.20689207021   0.0  
C   2.116     -2.74876463161   0.0  
C   2.645     -2.74876463161   0.0  
C   1.3225     -2.29063719301   0.0  
C   1.8515     -2.29063719301   0.0  
C   0.529     -1.83250975441   0.0  
C   1.058     -1.83250975441   0.0  
C   -0.2645     -1.37438231581   0.0  
C   0.2645     -1.37438231581   0.0  
C   -1.058     -0.916254877204   0.0  
C   -0.529     -0.916254877204   0.0  
C   -1.8515     -0.458127438602   0.0  
C   -1.3225     -0.458127438602   0.0  
C   -2.645     -3.15454862232e-14   0.0  
C   -2.116     -3.15454862232e-14   0.0  
C   -3.4385     0.458127438602   0.0  
C   -2.9095     0.458127438602   0.0  
C   -4.232     0.916254877204   0.0  
C   -3.703     0.916254877204   0.0  
C   -5.0255     1.37438231581   0.0  
C   -4.4965     1.37438231581   0.0  
C   -5.819     1.83250975441   0.0  
C   -5.29     1.83250975441   0.0  
C   -6.6125     2.29063719301   0.0  
C   -6.0835     2.29063719301   0.0  
C   -7.406     2.74876463161   0.0  
C   -6.877     2.74876463161   0.0  
C   -8.1995     3.20689207021   0.0  
C   -7.6705     3.20689207021   0.0  
C   -8.993     3.66501950882   0.0  
C   -8.464     3.66501950882   0.0  
C   -9.7865     4.12314694742   0.0  
C   -9.2575     4.12314694742   0.0  
C   -10.051     4.58127438602   0.0  
C   7.6705     -5.03940182462   0.0  
C   8.1995     -5.03940182462   0.0  
C   6.877     -4.58127438602   0.0  
C   7.406     -4.58127438602   0.0  
C   6.0835     -4.12314694742   0.0  
C   6.6125     -4.12314694742   0.0  
C   5.29     -3.66501950882   0.0  
C   5.819     -3.66501950882   0.0  
C   4.4965     -3.20689207021   0.0  
C   5.0255     -3.20689207021   0.0  
C   3.703     -2.74876463161   0.0  
C   4.232     -2.74876463161   0.0  
C   2.9095     -2.29063719301   0.0  
C   3.4385     -2.29063719301   0.0  
C   2.116     -1.83250975441   0.0  
C   2.645     -1.83250975441   0.0  
C   1.3225     -1.37438231581   0.0  
C   1.8515     -1.37438231581   0.0  
C   0.529     -0.916254877204   0.0  
C   1.058     -0.916254877204   0.0  
C   -0.2645     -0.458127438602   0.0  
C   0.2645     -0.458127438602   0.0  
C   -1.058     -3.15454862232e-14   0.0  
C   -0.529     -3.15454862232e-14   0.0  
C   -1.8515     0.458127438602   0.0  
C   -1.3225     0.458127438602   0.0  
C   -2.645     0.916254877204   0.0  
C   -2.116     0.916254877204   0.0  
C   -3.4385     1.37438231581   0.0  
C   -2.9095     1.37438231581   0.0  
C   -4.232     1.83250975441   0.0  
C   -3.703     1.83250975441   0.0  
C   -5.0255     2.29063719301   0.0  
C   -4.4965     2.29063719301   0.0  
C   -5.819     2.74876463161   0.0  
C   -5.29     2.74876463161   0.0  
C   -6.6125     3.20689207021   0.0  
C   -6.0835     3.20689207021   0.0  
C   -7.406     3.66501950882   0.0  
C   -6.877     3.66501950882   0.0  
C   -8.1995     4.12314694742   0.0  
C   -7.6705     4.12314694742   0.0  
C   -8.993     4.58127438602   0.0  
C   -8.464     4.58127438602   0.0  
C   9.2575     -5.03940182462   0.0  
C   9.7865     -5.03940182462   0.0  
C   8.464     -4.58127438602   0.0  
C   8.993     -4.58127438602   0.0  
C   7.6705     -4.12314694742   0.0  
C   8.1995     -4.12314694742   0.0  
C   6.877     -3.66501950882   0.0  
C   7.406     -3.66501950882   0.0  
C   6.0835     -3.20689207021   0.0  
C   6.6125     -3.20689207021   0.0  
C   5.29     -2.74876463161   0.0  
C   5.819     -2.74876463161   0.0  
C   4.4965     -2.29063719301   0.0  
C   5.0255     -2.29063719301   0.0  
C   3.703     -1.83250975441   0.0  
C   4.232     -1.83250975441   0.0  
C   2.9095     -1.37438231581   0.0  
C   3.4385     -1.37438231581   0.0  
C   2.116     -0.916254877204   0.0  
C   2.645     -0.916254877204   0.0  
C   1.3225     -0.458127438602   0.0  
C   1.8515     -0.458127438602   0.0  
C   0.529     -3.15454862232e-14   0.0  
C   1.058     -3.15454862232e-14   0.0  
C   -0.2645     0.458127438602   0.0  
C   0.2645     0.458127438602   0.0  
C   -1.058     0.916254877204   0.0  
C   -0.529     0.916254877204   0.0  
C   -1.8515     1.37438231581   0.0  
C   -1.3225     1.37438231581   0.0  
C   -2.645     1.83250975441   0.0  
C   -2.116     1.83250975441   0.0  
C   -3.4385     2.29063719301   0.0  
C   -2.9095     2.29063719301   0.0  
C   -4.232     2.74876463161   0.0  
C   -3.703     2.74876463161   0.0  
C   -5.0255     3.20689207021   0.0  
C   -4.4965     3.20689207021   0.0  
C   -5.819     3.66501950882   0.0  
C   -5.29     3.66501950882   0.0  
C   -6.6125     4.12314694742   0.0  
C   -6.0835     4.12314694742   0.0  
C   -7.406     4.58127438602   0.0  
C   -6.877     4.58127438602   0.0  
C   10.051     -4.58127438602   0.0  
C   10.58     -4.58127438602   0.0  
C   9.2575     -4.12314694742   0.0  
C   9.7865     -4.12314694742   0.0  
C   8.464     -3.66501950882   0.0  
C   8.993     -3.66501950882   0.0  
C   7.6705     -3.20689207021   0.0  
C   8.1995     -3.20689207021   0.0  
C   6.877     -2.74876463161   0.0  
C   7.406     -2.74876463161   0.0  
C   6.0835     -2.29063719301   0.0  
C   6.6125     -2.29063719301   0.0  
C   5.29     -1.83250975441   0.0  
C   5.819     -1.83250975441   0.0  
C   4.4965     -1.37438231581   0.0  
C   5.0255     -1.37438231581   0.0  
C   3.703     -0.916254877204   0.0  
C   4.232     -0.916254877204   0.0  
C   2.9095     -0.458127438602   0.0  
C   3.4385     -0.458127438602   0.0  
C   2.116     -3.15454862232e-14   0.0  
C   2.645     -3.15454862232e-14   0.0  
C   1.3225     0.458127438602   0.0  
C   1.8515     0.458127438602   0.0  
C   0.529     0.916254877204   0.0  
C   1.058     0.916254877204   0.0  
C   -0.2645     1.37438231581   0.0  
C   0.2645     1.37438231581   0.0  
C   -1.058     1.83250975441   0.0  
C   -0.529     1.83250975441   0.0  
C   -1.8515     2.29063719301   0.0  
C   -1.3225     2.29063719301   0.0  
C   -2.645     2.74876463161   0.0  
C   -2.116     2.74876463161   0.0  
C   -3.4385     3.20689207021   0.0  
C   -2.9095     3.20689207021   0.0  
C   -4.232     3.66501950882   0.0  
C   -3.703     3.66501950882   0.0  
C   -5.0255     4.12314694742   0.0  
C   -4.4965     4.12314694742   0.0  
C   -5.819     4.58127438602   0.0  
C   -5.29     4.58127438602   0.0  
C   10.051     -3.66501950882   0.0  
C   10.58     -3.66501950882   0.0  
C   9.2575     -3.20689207021   0.0  
C   9.7865     -3.20689207021   0.0  
C   8.464     -2.74876463161   0.0  
C   8.993     -2.74876463161   0.0  
C   7.6705     -2.29063719301   0.0  
C   8.1995     -2.29063719301   0.0  
C   6.877     -1.83250975441   0.0  
C   7.406     -1.83250975441   0.0  
C   6.0835     -1.37438231581   0.0  
C   6.6125     -1.37438231581   0.0  
C   5.29     -0.916254877204   0.0  
C   5.819     -0.916254877204   0.0  
C   4.4965     -0.458127438602   0.0  
C   5.0255     -0.458127438602   0.0  
C   3.703     -3.15454862232e-14   0.0  
C   4.232     -3.15454862232e-14   0.0  
C   2.9095     0.458127438602   0.0  
C   3.4385     0.458127438602   0.0  
C   2.116     0.916254877204   0.0  
C   2.645     0.916254877204   0.0  
C   1.3225     1.37438231581   0.0  
C   1.8515     1.37438231581   0.0  
C   0.529     1.83250975441   0.0  
C   1.058     1.83250975441   0.0  
C   -0.2645     2.29063719301   0.0  
C   0.2645     2.29063719301   0.0  
C   -1.058     2.74876463161   0.0  
C   -0.529     2.74876463161   0.0  
C   -1.8515     3.20689207021   0.0  
C   -1.3225     3.20689207021   0.0  
C   -2.645     3.66501950882   0.0  
C   -2.116     3.66501950882   0.0  
C   -3.4385     4.12314694742   0.0  
C   -2.9095     4.12314694742   0.0  
C   -4.232     4.58127438602   0.0  
C   -3.703     4.58127438602   0.0  
C   10.051     -2.74876463161   0.0  
C   10.58     -2.74876463161   0.0  
C   9.2575     -2.29063719301   0.0  
C   9.7865     -2.29063719301   0.0  
C   8.464     -1.83250975441   0.0  
C   8.993     -1.83250975441   0.0  
C   7.6705     -1.37438231581   0.0  
C   8.1995     -1.37438231581   0.0  
C   6.877     -0.916254877204   0.0  
C   7.406     -0.916254877204   0.0  
C   6.0835     -0.458127438602   0.0  
C   6.6125     -0.458127438602   0.0  
C   5.29     -3.15454862232e-14   0.0  
C   5.819     -3.15454862232e-14   0.0  
C   4.4965     0.458127438602   0.0  
C   5.0255     0.458127438602   0.0  
C   3.703     0.916254877204   0.0  
C   4.232     0.916254877204   0.0  
C   2.9095     1.37438231581   0.0  
C   3.4385     1.37438231581   0.0  
C   2.116     1.83250975441   0.0  
C   2.645     1.83250975441   0.0  
C   1.3225     2.29063719301   0.0  
C   1.8515     2.29063719301   0.0  
C   0.529     2.74876463161   0.0  
C   1.058     2.74876463161   0.0  
C   -0.2645     3.20689207021   0.0  
C   0.2645     3.20689207021   0.0  
C   -1.058     3.66501950882   0.0  
C   -0.529     3.66501950882   0.0  
C   -1.8515     4.12314694742   0.0  
C   -1.3225     4.12314694742   0.0  
C   -2.645     4.58127438602   0.0  
C   -2.116     4.58127438602   0.0  
C   10.051     -1.83250975441   0.0  
C   10.58     -1.83250975441   0.0  
C   9.2575     -1.37438231581   0.0  
C   9.7865     -1.37438231581   0.0  
C   8.464     -0.916254877204   0.0  
C   8.993     -0.916254877204   0.0  
C   7.6705     -0.458127438602   0.0  
C   8.1995     -0.458127438602   0.0  
C   6.877     -3.15454862232e-14   0.0  
C   7.406     -3.15454862232e-14   0.0  
C   6.0835     0.458127438602   0.0  
C   6.6125     0.458127438602   0.0  
C   5.29     0.916254877204   0.0  
C   5.819     0.916254877204   0.0  
C   4.4965     1.37438231581   0.0  
C   5.0255     1.37438231581   0.0  
C   3.703     1.83250975441   0.0  
C   4.232     1.83250975441   0.0  
C   2.9095     2.29063719301   0.0  
C   3.4385     2.29063719301   0.0  
C   2.116     2.74876463161   0.0  
C   2.645     2.74876463161   0.0  
C   1.3225     3.20689207021   0.0  
C   1.8515     3.20689207021   0.0  
C   0.529     3.66501950882   0.0  
C   1.058     3.66501950882   0.0  
C   -0.2645     4.12314694742   0.0  
C   0.2645     4.12314694742   0.0  
C   -1.058     4.58127438602   0.0  
C   -0.529     4.58127438602   0.0  
C   10.051     -0.916254877204   0.0  
C   10.58     -0.916254877204   0.0  
C   9.2575     -0.458127438602   0.0  
C   9.7865     -0.458127438602   0.0  
C   8.464     -3.15454862232e-14   0.0  
C   8.993     -3.15454862232e-14   0.0  
C   7.6705     0.458127438602   0.0  
C   8.1995     0.458127438602   0.0  
C   6.877     0.916254877204   0.0  
C   7.406     0.916254877204   0.0  
C   6.0835     1.37438231581   0.0  
C   6.6125     1.37438231581   0.0  
C   5.29     1.83250975441   0.0  
C   5.819     1.83250975441   0.0  
C   4.4965     2.29063719301   0.0  
C   5.0255     2.29063719301   0.0  
C   3.703     2.74876463161   0.0  
C   4.232     2.74876463161   0.0  
C   2.9095     3.20689207021   0.0  
C   3.4385     3.20689207021   0.0  
C   2.116     3.66501950882   0.0  
C   2.645     3.66501950882   0.0  
C   1.3225     4.12314694742   0.0  
C   1.8515     4.12314694742   0.0  
C   0.529     4.58127438602   0.0  
C   1.058     4.58127438602   0.0  
C   10.051     -3.15454862232e-14   0.0  
C   10.58     -3.15454862232e-14   0.0  
C   9.2575     0.458127438602   0.0  
C   9.7865     0.458127438602   0.0  
C   8.464     0.916254877204   0.0  
C   8.993     0.916254877204   0.0  
C   7.6705     1.37438231581   0.0  
C   8.1995     1.37438231581   0.0  
C   6.877     1.83250975441   0.0  
C   7.406     1.83250975441   0.0  
C   6.0835     2.29063719301   0.0  
C   6.6125     2.29063719301   0.0  
C   5.29     2.74876463161   0.0  
C   5.819     2.74876463161   0.0  
C   4.4965     3.20689207021   0.0  
C   5.0255     3.20689207021   0.0  
C   3.703     3.66501950882   0.0  
C   4.232     3.66501950882   0.0  
C   2.9095     4.12314694742   0.0  
C   3.4385     4.12314694742   0.0  
C   2.116     4.58127438602   0.0  
C   2.645     4.58127438602   0.0  
C   10.051     0.916254877204   0.0  
C   10.58     0.916254877204   0.0  
C   9.2575     1.37438231581   0.0  
C   9.7865     1.37438231581   0.0  
C   8.464     1.83250975441   0.0  
C   8.993     1.83250975441   0.0  
C   7.6705     2.29063719301   0.0  
C   8.1995     2.29063719301   0.0  
C   6.877     2.74876463161   0.0  
C   7.406     2.74876463161   0.0  
C   6.0835     3.20689207021   0.0  
C   6.6125     3.20689207021   0.0  
C   5.29     3.66501950882   0.0  
C   5.819     3.66501950882   0.0  
C   4.4965     4.12314694742   0.0  
C   5.0255     4.12314694742   0.0  
C   3.703     4.58127438602   0.0  
C   4.232     4.58127438602   0.0  
C   10.051     1.83250975441   0.0  
C   10.58     1.83250975441   0.0  
C   9.2575     2.29063719301   0.0  
C   9.7865     2.29063719301   0.0  
C   8.464     2.74876463161   0.0  
C   8.993     2.74876463161   0.0  
C   7.6705     3.20689207021   0.0  
C   8.1995     3.20689207021   0.0  
C   6.877     3.66501950882   0.0  
C   7.406     3.66501950882   0.0  
C   6.0835     4.12314694742   0.0  
C   6.6125     4.12314694742   0.0  
C   5.29     4.58127438602   0.0  
C   5.819     4.58127438602   0.0  
C   10.051     2.74876463161   0.0  
C   10.58     2.74876463161   0.0  
C   9.2575     3.20689207021   0.0  
C   9.7865     3.20689207021   0.0  
C   8.464     3.66501950882   0.0  
C   8.993     3.66501950882   0.0  
C   7.6705     4.12314694742   0.0  
C   8.1995     4.12314694742   0.0  
C   6.877     4.58127438602   0.0  
C   7.406     4.58127438602   0.0  
C   10.051     3.66501950882   0.0  
C   10.58     3.66501950882   0.0  
C   9.2575     4.12314694742   0.0  
C   9.7865     4.12314694742   0.0  
C   8.464     4.58127438602   0.0  
C   8.993     4.58127438602   0.0  
C   10.051     4.58127438602   0.0  
C   10.58     4.58127438602   0.0  
C   -10.051     -1.83250975441   0.0  
C   -8.993     -1.83250975441   0.0  
C   -9.7865     -1.37438231581   0.0  
C   -9.2575     -1.37438231581   0.0  
C   -10.051     -0.916254877204   0.0  
C   -8.993     -0.916254877204   0.0  
C   -9.7865     -0.458127438602   0.0  
C   -9.2575     -0.458127438602   0.0  
C   -10.051     -3.15454862232e-14   0.0  
C   -8.993     -3.15454862232e-14   0.0  
C   -9.7865     0.458127438602   0.0  
C   -9.2575     0.458127438602   0.0  
C   -10.051     0.916254877204   0.0  
C   -8.993     0.916254877204   0.0  
