10
Generated with pygra
C   0.24937299149845582     -0.4319266913107673   1.4988333333333335  
C   1.7619239400801236e-16     -2.3492319201068314e-16   1.3225000000000002  
C   1.7619239400801236e-16     0.0   0.7935000000000002  
C   -0.24937299149845576     0.431926691310767   0.6171666666666668  
C   -0.24937299149845576     0.431926691310767   0.08816666666666671  
C   0.24937299149845588     -0.43192669131076716   -0.08816666666666662  
C   0.24937299149845576     -0.431926691310767   -0.6171666666666669  
C   -1.1746159600534157e-16     3.5238478801602473e-16   -0.7935000000000006  
C   0.0     2.3492319201068314e-16   -1.3225000000000005  
C   -0.24937299149845576     0.43192669131076744   -1.498833333333334  
