232
Generated with pygra
C   -6.823741080322293     -1.1876400596520489   0.0  
C   -6.412330495437997     -1.5201792763546225   0.0  
C   -5.918637793576841     -1.330156866810295   0.0  
C   -5.507227208692545     -1.6626960835128686   0.0  
C   -10.115025759396662     -1.472673673968541   0.0  
C   -9.703615174512366     -1.8052128906711147   0.0  
C   -9.209922472651211     -1.6151904811267865   0.0  
C   -8.798511887766916     -1.9477296978293606   0.0  
C   -8.30481918590576     -1.7577072882850324   0.0  
C   -7.893408601021464     -2.090246504987606   0.0  
C   -7.399715899160308     -1.9002240954432787   0.0  
C   -7.152869548229729     -0.3325392167025736   0.0  
C   -6.7414589633454325     -0.6650784334051473   0.0  
C   -6.247766261484278     -0.4750560238608197   0.0  
C   -5.8363556765999824     -0.8075952405633933   0.0  
C   -5.342662974738826     -0.6175728310190656   0.0  
C   -10.032743642419804     -0.9501120477216395   0.0  
C   -9.539050940558647     -0.7600896381773113   0.0  
C   -9.127640355674352     -1.092628854879885   0.0  
C   -8.633947653813197     -0.9026064453355573   0.0  
C   -8.2225370689289     -1.2351456620381311   0.0  
C   -7.728844367067745     -1.0451232524938034   0.0  
C   -7.317433782183449     -1.3776624691963772   0.0  
C   -7.481998016137166     0.5225616262469018   0.0  
C   -7.0705874312528705     0.190022409544328   0.0  
C   -6.576894729391715     0.3800448190886556   0.0  
C   -6.1654841445074196     0.047505602386081876   0.0  
C   -5.6717914426462634     0.2375280119304096   0.0  
C   -5.260380857761968     -0.09501120477216417   0.0  
C   -9.868179408466085     0.09501120477216393   0.0  
C   -9.45676882358179     -0.23752801193040976   0.0  
C   -8.963076121720633     -0.04750560238608219   0.0  
C   -8.551665536836337     -0.38004481908865595   0.0  
C   -8.057972834975182     -0.1900224095443279   0.0  
C   -7.646562250090885     -0.5225616262469018   0.0  
C   -7.811126484044603     1.3776624691963772   0.0  
C   -7.399715899160307     1.0451232524938032   0.0  
C   -6.906023197299152     1.2351456620381311   0.0  
C   -6.494612612414856     0.9026064453355573   0.0  
C   -6.0009199105537006     1.0926288548798853   0.0  
C   -5.589509325669405     0.7600896381773113   0.0  
C   -5.095816623808248     0.9501120477216395   0.0  
C   -9.785897291489226     0.6175728310190656   0.0  
C   -9.29220458962807     0.8075952405633935   0.0  
C   -8.880794004743773     0.4750560238608196   0.0  
C   -8.387101302882618     0.6650784334051473   0.0  
C   -7.975690717998321     0.33253921670257347   0.0  
C   -7.728844367067745     1.900224095443279   0.0  
C   -7.2351516652065895     2.0902465049876064   0.0  
C   -6.823741080322293     1.7577072882850326   0.0  
C   -6.330048378461138     1.9477296978293606   0.0  
C   -5.918637793576841     1.6151904811267865   0.0  
C   -5.424945091715685     1.8052128906711147   0.0  
C   -10.115025759396662     1.472673673968541   0.0  
C   -9.621333057535507     1.6626960835128686   0.0  
C   -9.209922472651211     1.330156866810295   0.0  
C   -8.716229770790056     1.5201792763546225   0.0  
C   -8.30481918590576     1.1876400596520489   0.0  
C   -1.7222498277570193     -1.1876400596520489   0.0  
C   -1.3108392428727236     -1.5201792763546225   0.0  
C   -0.8171465410115681     -1.330156866810295   0.0  
C   -0.4057359561272725     -1.6626960835128686   0.0  
C   -5.013534506831389     -1.472673673968541   0.0  
C   -4.6021239219470935     -1.8052128906711147   0.0  
C   -4.108431220085937     -1.6151904811267865   0.0  
C   -3.6970206352016413     -1.9477296978293606   0.0  
C   -3.203327933340486     -1.7577072882850324   0.0  
C   -2.7919173484561908     -2.090246504987606   0.0  
C   -2.2982246465950342     -1.9002240954432787   0.0  
C   -2.051378295664456     -0.3325392167025736   0.0  
C   -1.6399677107801596     -0.6650784334051473   0.0  
C   -1.1462750089190052     -0.4750560238608197   0.0  
C   -0.7348644240347094     -0.8075952405633933   0.0  
C   -0.2411717221735531     -0.6175728310190656   0.0  
C   -4.931252389854531     -0.9501120477216395   0.0  
C   -4.4375596879933745     -0.7600896381773113   0.0  
C   -4.026149103109079     -1.092628854879885   0.0  
C   -3.532456401247923     -0.9026064453355573   0.0  
C   -3.1210458163636265     -1.2351456620381311   0.0  
C   -2.6273531145024713     -1.0451232524938034   0.0  
C   -2.2159425296181756     -1.3776624691963772   0.0  
C   -2.380506763571893     0.5225616262469018   0.0  
C   -1.9690961786875976     0.190022409544328   0.0  
C   -1.4754034768264421     0.3800448190886556   0.0  
C   -1.0639928919421464     0.047505602386081876   0.0  
C   -0.57030019008099     0.2375280119304096   0.0  
C   -0.15888960519669432     -0.09501120477216417   0.0  
C   -4.766688155900812     0.09501120477216393   0.0  
C   -4.355277571016516     -0.23752801193040976   0.0  
C   -3.8615848691553603     -0.04750560238608219   0.0  
C   -3.4501742842710637     -0.38004481908865595   0.0  
C   -2.956481582409908     -0.1900224095443279   0.0  
C   -2.5450709975256114     -0.5225616262469018   0.0  
C   -2.70963523147933     1.3776624691963772   0.0  
C   -2.2982246465950333     1.0451232524938032   0.0  
C   -1.804531944733879     1.2351456620381311   0.0  
C   -1.3931213598495824     0.9026064453355573   0.0  
C   -0.8994286579884269     1.0926288548798853   0.0  
C   -0.48801807310413126     0.7600896381773113   0.0  
C   0.005674628757025091     0.9501120477216395   0.0  
C   -4.684406038923952     0.6175728310190656   0.0  
C   -4.190713337062797     0.8075952405633935   0.0  
C   -3.7793027521785003     0.4750560238608196   0.0  
C   -3.285610050317345     0.6650784334051473   0.0  
C   -2.8741994654330485     0.33253921670257347   0.0  
C   -2.6273531145024713     1.900224095443279   0.0  
C   -2.1336604126413157     2.0902465049876064   0.0  
C   -1.7222498277570193     1.7577072882850326   0.0  
C   -1.228557125895865     1.9477296978293606   0.0  
C   -0.8171465410115681     1.6151904811267865   0.0  
C   -0.32345383915041187     1.8052128906711147   0.0  
C   -5.013534506831389     1.472673673968541   0.0  
C   -4.519841804970234     1.6626960835128686   0.0  
C   -4.108431220085937     1.330156866810295   0.0  
C   -3.614738518224782     1.5201792763546225   0.0  
C   -3.203327933340486     1.1876400596520489   0.0  
C   3.3792414248082534     -1.1876400596520489   0.0  
C   3.790652009692551     -1.5201792763546225   0.0  
C   4.284344711553706     -1.330156866810295   0.0  
C   4.695755296438001     -1.6626960835128686   0.0  
C   0.08795674573388385     -1.472673673968541   0.0  
C   0.49936733061817956     -1.8052128906711147   0.0  
C   0.9930600324793359     -1.6151904811267865   0.0  
C   1.4044706173636314     -1.9477296978293606   0.0  
C   1.8981633192247878     -1.7577072882850324   0.0  
C   2.309573904109084     -2.090246504987606   0.0  
C   2.80326660597024     -1.9002240954432787   0.0  
C   3.0501129569008163     -0.3325392167025736   0.0  
C   3.461523541785114     -0.6650784334051473   0.0  
C   3.9552162436462686     -0.4750560238608197   0.0  
C   4.366626828530564     -0.8075952405633933   0.0  
C   4.86031953039172     -0.6175728310190656   0.0  
C   0.17023886271074262     -0.9501120477216395   0.0  
C   0.6639315645718991     -0.7600896381773113   0.0  
C   1.0753421494561946     -1.092628854879885   0.0  
C   1.5690348513173509     -0.9026064453355573   0.0  
C   1.9804454362016466     -1.2351456620381311   0.0  
C   2.474138138062801     -1.0451232524938034   0.0  
C   2.885548722947097     -1.3776624691963772   0.0  
C   2.7209844889933814     0.5225616262469018   0.0  
C   3.132395073877677     0.190022409544328   0.0  
C   3.6260877757388315     0.3800448190886556   0.0  
C   4.037498360623127     0.047505602386081876   0.0  
C   4.531191062484283     0.2375280119304096   0.0  
C   4.942601647368579     -0.09501120477216417   0.0  
C   0.334803096664462     0.09501120477216393   0.0  
C   0.7462136815487578     -0.23752801193040976   0.0  
C   1.239906383409914     -0.04750560238608219   0.0  
C   1.6513169682942097     -0.38004481908865595   0.0  
C   2.1450096701553663     -0.1900224095443279   0.0  
C   2.556420255039662     -0.5225616262469018   0.0  
C   2.3918560210859443     1.3776624691963772   0.0  
C   2.80326660597024     1.0451232524938032   0.0  
C   3.296959307831395     1.2351456620381311   0.0  
C   3.7083698927156923     0.9026064453355573   0.0  
C   4.202062594576847     1.0926288548798853   0.0  
C   4.613473179461143     0.7600896381773113   0.0  
C   5.107165881322299     0.9501120477216395   0.0  
C   0.4170852136413208     0.6175728310190656   0.0  
C   0.9107779155024753     0.8075952405633935   0.0  
C   1.3221885003867728     0.4750560238608196   0.0  
C   1.8158812022479291     0.6650784334051473   0.0  
C   2.227291787132225     0.33253921670257347   0.0  
C   2.4741381380628034     1.900224095443279   0.0  
C   2.9678308399239577     2.0902465049876064   0.0  
C   3.3792414248082534     1.7577072882850326   0.0  
C   3.8729341266694095     1.9477296978293606   0.0  
C   4.284344711553706     1.6151904811267865   0.0  
C   4.778037413414862     1.8052128906711147   0.0  
C   0.08795674573388385     1.472673673968541   0.0  
C   0.5816494475950393     1.6626960835128686   0.0  
C   0.9930600324793359     1.330156866810295   0.0  
C   1.4867527343404903     1.5201792763546225   0.0  
C   1.8981633192247878     1.1876400596520489   0.0  
C   8.480732677373528     -1.1876400596520489   0.0  
C   8.892143262257825     -1.5201792763546225   0.0  
C   9.38583596411898     -1.330156866810295   0.0  
C   9.797246549003274     -1.6626960835128686   0.0  
C   5.1894479982991575     -1.472673673968541   0.0  
C   5.600858583183453     -1.8052128906711147   0.0  
C   6.094551285044609     -1.6151904811267865   0.0  
C   6.505961869928905     -1.9477296978293606   0.0  
C   6.999654571790061     -1.7577072882850324   0.0  
C   7.411065156674357     -2.090246504987606   0.0  
C   7.904757858535514     -1.9002240954432787   0.0  
C   8.15160420946609     -0.3325392167025736   0.0  
C   8.563014794350387     -0.6650784334051473   0.0  
C   9.056707496211542     -0.4750560238608197   0.0  
C   9.46811808109584     -0.8075952405633933   0.0  
C   9.961810782956992     -0.6175728310190656   0.0  
C   5.271730115276016     -0.9501120477216395   0.0  
C   5.765422817137172     -0.7600896381773113   0.0  
C   6.176833402021468     -1.092628854879885   0.0  
C   6.670526103882625     -0.9026064453355573   0.0  
C   7.081936688766921     -1.2351456620381311   0.0  
C   7.575629390628075     -1.0451232524938034   0.0  
C   7.987039975512371     -1.3776624691963772   0.0  
C   7.822475741558655     0.5225616262469018   0.0  
C   8.233886326442951     0.190022409544328   0.0  
C   8.727579028304104     0.3800448190886556   0.0  
C   9.1389896131884     0.047505602386081876   0.0  
C   9.632682315049557     0.2375280119304096   0.0  
C   10.044092899933851     -0.09501120477216417   0.0  
C   5.436294349229736     0.09501120477216393   0.0  
C   5.847704934114032     -0.23752801193040976   0.0  
C   6.341397635975188     -0.04750560238608219   0.0  
C   6.7528082208594835     -0.38004481908865595   0.0  
C   7.24650092272064     -0.1900224095443279   0.0  
C   7.657911507604935     -0.5225616262469018   0.0  
C   7.493347273651218     1.3776624691963772   0.0  
C   7.904757858535514     1.0451232524938032   0.0  
C   8.398450560396668     1.2351456620381311   0.0  
C   8.809861145280966     0.9026064453355573   0.0  
C   9.303553847142117     1.0926288548798853   0.0  
C   9.714964432026417     0.7600896381773113   0.0  
C   10.208657133887572     0.9501120477216395   0.0  
C   5.518576466206595     0.6175728310190656   0.0  
C   6.012269168067749     0.8075952405633935   0.0  
C   6.423679752952046     0.4750560238608196   0.0  
C   6.9173724548132025     0.6650784334051473   0.0  
C   7.328783039697498     0.33253921670257347   0.0  
C   7.575629390628077     1.900224095443279   0.0  
C   8.069322092489232     2.0902465049876064   0.0  
C   8.480732677373528     1.7577072882850326   0.0  
C   8.974425379234683     1.9477296978293606   0.0  
C   9.38583596411898     1.6151904811267865   0.0  
C   9.879528665980134     1.8052128906711147   0.0  
C   5.1894479982991575     1.472673673968541   0.0  
C   5.683140700160314     1.6626960835128686   0.0  
C   6.094551285044609     1.330156866810295   0.0  
C   6.588243986905764     1.5201792763546225   0.0  
C   6.999654571790061     1.1876400596520489   0.0  
