80
Generated with pygra
C   -0.22906371930098396     15.605500000000001   0.0  
C   0.22906371930098407     15.341000000000001   0.0  
C   0.22906371930098407     14.812000000000001   0.0  
C   -0.22906371930098396     14.547500000000001   0.0  
C   -0.22906371930098396     14.018500000000001   0.0  
C   0.22906371930098407     13.754000000000001   0.0  
C   0.22906371930098407     13.225000000000001   0.0  
C   -0.22906371930098396     12.960500000000001   0.0  
C   -0.22906371930098396     12.4315   0.0  
C   0.22906371930098407     12.167   0.0  
C   0.22906371930098407     11.638   0.0  
C   -0.22906371930098396     11.3735   0.0  
C   -0.22906371930098396     10.8445   0.0  
C   0.22906371930098407     10.58   0.0  
C   0.22906371930098407     10.051   0.0  
C   -0.22906371930098396     9.7865   0.0  
C   -0.22906371930098396     9.2575   0.0  
C   0.22906371930098407     8.993   0.0  
C   0.22906371930098407     8.464   0.0  
C   -0.22906371930098396     8.1995   0.0  
C   -0.22906371930098396     7.6705000000000005   0.0  
C   0.22906371930098407     7.406000000000001   0.0  
C   0.22906371930098407     6.877000000000001   0.0  
C   -0.22906371930098396     6.612500000000001   0.0  
C   -0.22906371930098396     6.0835   0.0  
C   0.22906371930098407     5.819   0.0  
C   0.22906371930098407     5.29   0.0  
C   -0.22906371930098396     5.0255   0.0  
C   -0.22906371930098396     4.4965   0.0  
C   0.22906371930098407     4.232   0.0  
C   0.22906371930098407     3.7030000000000003   0.0  
C   -0.22906371930098396     3.4385000000000003   0.0  
C   -0.22906371930098396     2.9095   0.0  
C   0.22906371930098407     2.645   0.0  
C   0.22906371930098407     2.116   0.0  
C   -0.22906371930098396     1.8515000000000001   0.0  
C   -0.22906371930098396     1.3225   0.0  
C   0.22906371930098407     1.058   0.0  
C   0.22906371930098407     0.529   0.0  
C   -0.22906371930098396     0.2645   0.0  
C   -0.22906371930098396     -0.2645   -0.0  
C   0.22906371930098407     -0.529   -0.0  
C   0.22906371930098407     -1.058   -0.0  
C   -0.22906371930098396     -1.3225   -0.0  
C   -0.22906371930098396     -1.8515000000000001   -0.0  
C   0.22906371930098407     -2.116   -0.0  
C   0.22906371930098407     -2.645   -0.0  
C   -0.22906371930098396     -2.9095   -0.0  
C   -0.22906371930098396     -3.4385000000000003   -0.0  
C   0.22906371930098407     -3.7030000000000003   -0.0  
C   0.22906371930098407     -4.232   -0.0  
C   -0.22906371930098396     -4.4965   -0.0  
C   -0.22906371930098396     -5.0255   -0.0  
C   0.22906371930098407     -5.29   -0.0  
C   0.22906371930098407     -5.819   -0.0  
C   -0.22906371930098396     -6.0835   -0.0  
C   -0.22906371930098396     -6.612500000000001   -0.0  
C   0.22906371930098407     -6.877000000000001   -0.0  
C   0.22906371930098407     -7.406000000000001   -0.0  
C   -0.22906371930098396     -7.6705000000000005   -0.0  
C   -0.22906371930098396     -8.1995   -0.0  
C   0.22906371930098407     -8.464   -0.0  
C   0.22906371930098407     -8.993   -0.0  
C   -0.22906371930098396     -9.2575   -0.0  
C   -0.22906371930098396     -9.7865   -0.0  
C   0.22906371930098407     -10.051   -0.0  
C   0.22906371930098407     -10.58   -0.0  
C   -0.22906371930098396     -10.8445   -0.0  
C   -0.22906371930098396     -11.3735   -0.0  
C   0.22906371930098407     -11.638   -0.0  
C   0.22906371930098407     -12.167   -0.0  
C   -0.22906371930098396     -12.4315   -0.0  
C   -0.22906371930098396     -12.960500000000001   -0.0  
C   0.22906371930098407     -13.225000000000001   -0.0  
C   0.22906371930098407     -13.754000000000001   -0.0  
C   -0.22906371930098396     -14.018500000000001   -0.0  
C   -0.22906371930098396     -14.547500000000001   -0.0  
C   0.22906371930098407     -14.812000000000001   -0.0  
C   0.22906371930098407     -15.341000000000001   -0.0  
C   -0.22906371930098396     -15.605500000000001   -0.0  
