144
Generated with pygra
C   -2.9095     -2.9095   0.0  
C   -2.3805     -2.9095   0.0  
C   -2.3805     -2.3805   0.0  
C   -2.9095     -2.3805   0.0  
C   -2.9095     -1.8515000000000001   0.0  
C   -2.3805     -1.8515000000000001   0.0  
C   -2.3805     -1.3225   0.0  
C   -2.9095     -1.3225   0.0  
C   -2.9095     -0.7935000000000001   0.0  
C   -2.3805     -0.7935000000000001   0.0  
C   -2.3805     -0.2645   0.0  
C   -2.9095     -0.2645   0.0  
C   -2.9095     0.2645   0.0  
C   -2.3805     0.2645   0.0  
C   -2.3805     0.7935000000000001   0.0  
C   -2.9095     0.7935000000000001   0.0  
C   -2.9095     1.3225   0.0  
C   -2.3805     1.3225   0.0  
C   -2.3805     1.8515000000000001   0.0  
C   -2.9095     1.8515000000000001   0.0  
C   -2.9095     2.3805   0.0  
C   -2.3805     2.3805   0.0  
C   -2.3805     2.9095   0.0  
C   -2.9095     2.9095   0.0  
C   -1.8515000000000001     -2.9095   0.0  
C   -1.3225     -2.9095   0.0  
C   -1.3225     -2.3805   0.0  
C   -1.8515000000000001     -2.3805   0.0  
C   -1.8515000000000001     -1.8515000000000001   0.0  
C   -1.3225     -1.8515000000000001   0.0  
C   -1.3225     -1.3225   0.0  
C   -1.8515000000000001     -1.3225   0.0  
C   -1.8515000000000001     -0.7935000000000001   0.0  
C   -1.3225     -0.7935000000000001   0.0  
C   -1.3225     -0.2645   0.0  
C   -1.8515000000000001     -0.2645   0.0  
C   -1.8515000000000001     0.2645   0.0  
C   -1.3225     0.2645   0.0  
C   -1.3225     0.7935000000000001   0.0  
C   -1.8515000000000001     0.7935000000000001   0.0  
C   -1.8515000000000001     1.3225   0.0  
C   -1.3225     1.3225   0.0  
C   -1.3225     1.8515000000000001   0.0  
C   -1.8515000000000001     1.8515000000000001   0.0  
C   -1.8515000000000001     2.3805   0.0  
C   -1.3225     2.3805   0.0  
C   -1.3225     2.9095   0.0  
C   -1.8515000000000001     2.9095   0.0  
C   -0.7935000000000001     -2.9095   0.0  
C   -0.2645     -2.9095   0.0  
C   -0.2645     -2.3805   0.0  
C   -0.7935000000000001     -2.3805   0.0  
C   -0.7935000000000001     -1.8515000000000001   0.0  
C   -0.2645     -1.8515000000000001   0.0  
C   -0.2645     -1.3225   0.0  
C   -0.7935000000000001     -1.3225   0.0  
C   -0.7935000000000001     -0.7935000000000001   0.0  
C   -0.2645     -0.7935000000000001   0.0  
C   -0.2645     -0.2645   0.0  
C   -0.7935000000000001     -0.2645   0.0  
C   -0.7935000000000001     0.2645   0.0  
C   -0.2645     0.2645   0.0  
C   -0.2645     0.7935000000000001   0.0  
C   -0.7935000000000001     0.7935000000000001   0.0  
C   -0.7935000000000001     1.3225   0.0  
C   -0.2645     1.3225   0.0  
C   -0.2645     1.8515000000000001   0.0  
C   -0.7935000000000001     1.8515000000000001   0.0  
C   -0.7935000000000001     2.3805   0.0  
C   -0.2645     2.3805   0.0  
C   -0.2645     2.9095   0.0  
C   -0.7935000000000001     2.9095   0.0  
C   0.2645     -2.9095   0.0  
C   0.7935000000000001     -2.9095   0.0  
C   0.7935000000000001     -2.3805   0.0  
C   0.2645     -2.3805   0.0  
C   0.2645     -1.8515000000000001   0.0  
C   0.7935000000000001     -1.8515000000000001   0.0  
C   0.7935000000000001     -1.3225   0.0  
C   0.2645     -1.3225   0.0  
C   0.2645     -0.7935000000000001   0.0  
C   0.7935000000000001     -0.7935000000000001   0.0  
C   0.7935000000000001     -0.2645   0.0  
C   0.2645     -0.2645   0.0  
C   0.2645     0.2645   0.0  
C   0.7935000000000001     0.2645   0.0  
C   0.7935000000000001     0.7935000000000001   0.0  
C   0.2645     0.7935000000000001   0.0  
C   0.2645     1.3225   0.0  
C   0.7935000000000001     1.3225   0.0  
C   0.7935000000000001     1.8515000000000001   0.0  
C   0.2645     1.8515000000000001   0.0  
C   0.2645     2.3805   0.0  
C   0.7935000000000001     2.3805   0.0  
C   0.7935000000000001     2.9095   0.0  
C   0.2645     2.9095   0.0  
C   1.3225     -2.9095   0.0  
C   1.8515000000000001     -2.9095   0.0  
C   1.8515000000000001     -2.3805   0.0  
C   1.3225     -2.3805   0.0  
C   1.3225     -1.8515000000000001   0.0  
C   1.8515000000000001     -1.8515000000000001   0.0  
C   1.8515000000000001     -1.3225   0.0  
C   1.3225     -1.3225   0.0  
C   1.3225     -0.7935000000000001   0.0  
C   1.8515000000000001     -0.7935000000000001   0.0  
C   1.8515000000000001     -0.2645   0.0  
C   1.3225     -0.2645   0.0  
C   1.3225     0.2645   0.0  
C   1.8515000000000001     0.2645   0.0  
C   1.8515000000000001     0.7935000000000001   0.0  
C   1.3225     0.7935000000000001   0.0  
C   1.3225     1.3225   0.0  
C   1.8515000000000001     1.3225   0.0  
C   1.8515000000000001     1.8515000000000001   0.0  
C   1.3225     1.8515000000000001   0.0  
C   1.3225     2.3805   0.0  
C   1.8515000000000001     2.3805   0.0  
C   1.8515000000000001     2.9095   0.0  
C   1.3225     2.9095   0.0  
C   2.3805     -2.9095   0.0  
C   2.9095     -2.9095   0.0  
C   2.9095     -2.3805   0.0  
C   2.3805     -2.3805   0.0  
C   2.3805     -1.8515000000000001   0.0  
C   2.9095     -1.8515000000000001   0.0  
C   2.9095     -1.3225   0.0  
C   2.3805     -1.3225   0.0  
C   2.3805     -0.7935000000000001   0.0  
C   2.9095     -0.7935000000000001   0.0  
C   2.9095     -0.2645   0.0  
C   2.3805     -0.2645   0.0  
C   2.3805     0.2645   0.0  
C   2.9095     0.2645   0.0  
C   2.9095     0.7935000000000001   0.0  
C   2.3805     0.7935000000000001   0.0  
C   2.3805     1.3225   0.0  
C   2.9095     1.3225   0.0  
C   2.9095     1.8515000000000001   0.0  
C   2.3805     1.8515000000000001   0.0  
C   2.3805     2.3805   0.0  
C   2.9095     2.3805   0.0  
C   2.9095     2.9095   0.0  
C   2.3805     2.9095   0.0  
