28
Generated with pygra
C   1.150249879922155     -0.4213088988246778   0.7935000000000001  
C   0.9770939840198953     0.07854911673002499   0.7935000000000001  
C   0.4576262963131154     0.17852071984096574   0.7935000000000001  
C   -0.23499728729592434     0.7783503385066093   0.7935000000000001  
C   0.8039380881176352     -0.8211953112684404   0.7935000000000001  
C   0.28447040041085486     -0.7212237081574998   0.7935000000000001  
C   0.11131450450859495     -0.2213656926027968   0.7935000000000001  
C   -0.4081531831981842     -0.12139408949185604   0.7935000000000001  
C   -0.7544649750027045     -0.5212805019356186   0.7935000000000001  
C   -0.5813090791004444     0.37846392606284723   0.7935000000000001  
C   -0.5813090791004444     -1.021138517490322   0.7935000000000001  
C   -1.1007767668072246     0.47843552917378723   0.7935000000000001  
C   0.2844704004108551     0.6783787353956685   0.7935000000000001  
C   -1.2739326627094845     0.97829354472849   0.7935000000000001  
C   -0.3710483483619861     0.5712663034910895   -0.7935000000000001  
C   0.6678870270515738     -0.6283929338401978   -0.7935000000000001  
C   1.5336665065628734     -0.9283077431730196   -0.7935000000000001  
C   -0.7173601401665062     0.9711527159348518   -0.7935000000000001  
C   -1.2368278278732858     0.8711811128239113   -0.7935000000000001  
C   0.14841933934479382     0.67123790660203   -0.7935000000000001  
C   0.4947311311493136     0.27135149415826787   -0.7935000000000001  
C   -1.0636719319710257     -0.028563315174554262   -0.7935000000000001  
C   0.32157523524705395     -0.2285065213964353   -0.7935000000000001  
C   -0.19789245245972573     -0.3284781245073758   -0.7935000000000001  
C   1.187354714758354     -0.5284213307292572   -0.7935000000000001  
C   -0.37104834836198586     -0.828336140062079   -0.7935000000000001  
C   1.014198818856094     0.37132309726920826   -0.7935000000000001  
C   -0.5442042442642457     0.07140828793638648   -0.7935000000000001  
