508
Generated with pygra
C   6.433865335730646     -2.7648987726206666   0.7935000000000001  
C   5.684101556203086     -2.23823258336171   0.7935000000000001  
C   4.934337776675527     -1.7115663941027563   0.7935000000000001  
C   4.184573997147969     -1.1849002048438007   0.7935000000000001  
C   5.23840864281726     -1.2786900741638882   0.7935000000000001  
C   3.4348102176204085     -0.6582340155848454   0.7935000000000001  
C   4.488644863289703     -0.7520238849049334   0.7935000000000001  
C   7.102404705809385     -4.2042125364174   0.7935000000000001  
C   6.352640926281827     -3.6775463471584464   0.7935000000000001  
C   5.602877146754268     -3.1508801578994907   0.7935000000000001  
C   6.656711792423559     -3.244670027219578   0.7935000000000001  
C   4.853113367226708     -2.6242139686405346   0.7935000000000001  
C   5.906948012896001     -2.7180038379606226   0.7935000000000001  
C   4.10334958769915     -2.0975477793815807   0.7935000000000001  
C   5.15718423336844     -2.1913376487016674   0.7935000000000001  
C   3.353585808171591     -1.570881590122624   0.7935000000000001  
C   4.407420453840882     -1.6646714594427114   0.7935000000000001  
C   2.6038220286440312     -1.0442154008636693   0.7935000000000001  
C   3.6576566743133228     -1.1380052701837566   0.7935000000000001  
C   1.8540582491164728     -0.517549211604713   0.7935000000000001  
C   2.907892894785763     -0.6113390809248009   0.7935000000000001  
C   6.271416516833009     -4.590193921696225   0.7935000000000001  
C   7.3252511625023     -4.683983791016313   0.7935000000000001  
C   5.521652737305449     -4.06352773243727   0.7935000000000001  
C   6.575487382974742     -4.157317601757357   0.7935000000000001  
C   4.771888957777891     -3.5368615431783135   0.7935000000000001  
C   5.82572360344718     -3.630651412498401   0.7935000000000001  
C   4.022125178250332     -3.0101953539193573   0.7935000000000001  
C   5.0759598239196215     -3.103985223239446   0.7935000000000001  
C   3.2723613987227718     -2.4835291646604025   0.7935000000000001  
C   4.326196044392064     -2.5773190339804906   0.7935000000000001  
C   2.522597619195213     -1.9568629754014477   0.7935000000000001  
C   3.576432264864505     -2.0506528447215353   0.7935000000000001  
C   1.7728338396676544     -1.4301967861424925   0.7935000000000001  
C   2.826668485336946     -1.52398665546258   0.7935000000000001  
C   1.0230700601400957     -0.9035305968835368   0.7935000000000001  
C   2.0769047058093864     -0.9973204662036248   0.7935000000000001  
C   1.3271409262818266     -0.47065427694466855   0.7935000000000001  
C   4.690664548329071     -4.449509117716094   0.7935000000000001  
C   5.7444991939983625     -4.54329898703618   0.7935000000000001  
C   3.9409007688015127     -3.9228429284571376   0.7935000000000001  
C   4.994735414470805     -4.016632797777225   0.7935000000000001  
C   3.1911369892739536     -3.3961767391981814   0.7935000000000001  
C   4.244971634943246     -3.4899666085182695   0.7935000000000001  
C   2.441373209746394     -2.8695105499392266   0.7935000000000001  
C   3.495207855415685     -2.9633004192593146   0.7935000000000001  
C   1.6916094302188351     -2.3428443606802714   0.7935000000000001  
C   2.7454440758881264     -2.436634230000358   0.7935000000000001  
C   1.9956802963605669     -1.9099680407414041   0.7935000000000001  
C   1.2459165168330082     -1.3833018514824476   0.7935000000000001  
C   3.109912579825134     -4.308824313735961   0.7935000000000001  
C   4.1637472254944266     -4.402614183056049   0.7935000000000001  
C   2.3601488002975755     -3.7821581244770055   0.7935000000000001  
C   3.4139834459668674     -3.8759479937970935   0.7935000000000001  
C   1.6103850207700168     -3.2554919352180507   0.7935000000000001  
C   2.664219666439309     -3.3492818045381383   0.7935000000000001  
C   1.9144558869117487     -2.822615615279182   0.7935000000000001  
C   1.1646921073841898     -2.2959494260202273   0.7935000000000001  
C   2.58299525699049     -4.261929379075917   0.7935000000000001  
C   1.8332314774629304     -3.735263189816962   0.7935000000000001  
C   3.0099440758881246     3.5190224718252274   0.7935000000000001  
C   2.260180296360565     4.0456886610841805   0.7935000000000001  
C   3.6784834459668647     2.0797087080284924   0.7935000000000001  
C   2.9287196664393056     2.606374897287447   0.7935000000000001  
C   2.178955886911747     3.133041086546403   0.7935000000000001  
C   3.232790532581038     3.039251217226315   0.7935000000000001  
C   1.4291921073841871     3.6597072758053586   0.7935000000000001  
C   2.4830267530534784     3.5659174064852706   0.7935000000000001  
C   0.6794283278566284     4.186373465064315   0.7935000000000001  
C   1.7332629735259188     4.092583595744228   0.7935000000000001  
C   4.347022816045605     0.6403949442317569   0.7935000000000001  
C   3.5972590365180457     1.1670611334907135   0.7935000000000001  
C   2.847495256990486     1.6937273227496683   0.7935000000000001  
C   3.901329902659778     1.5999374534295794   0.7935000000000001  
C   2.0977314774629283     2.220393512008624   0.7935000000000001  
C   3.151566123132219     2.126603642688536   0.7935000000000001  
C   1.3479676979353687     2.747059701267578   0.7935000000000001  
C   2.4018023436046594     2.6532698319474917   0.7935000000000001  
C   0.5982039184078092     3.2737258905265345   0.7935000000000001  
C   1.6520385640771005     3.1799360212064482   0.7935000000000001  
C   -0.1515598611197495     3.8003920797854893   0.7935000000000001  
C   0.9022747845495419     3.7066022104654004   0.7935000000000001  
C   -0.9013236406473101     4.327058269044447   0.7935000000000001  
C   0.1525110050219813     4.2332683997243565   0.7935000000000001  
C   5.015562186124345     -0.7989188195649765   0.7935000000000001  
C   4.265798406596787     -0.27225263030602215   0.7935000000000001  
C   3.516034627069227     0.2544135589529345   0.7935000000000001  
C   4.569869272738519     0.1606236896328456   0.7935000000000001  
C   2.766270847541668     0.7810797482118893   0.7935000000000001  
C   3.8201054932109604     0.6872898788918004   0.7935000000000001  
C   2.0165070680141093     1.307745937470844   0.7935000000000001  
C   3.070341713683401     1.2139560681507562   0.7935000000000001  
C   1.2667432884865497     1.8344121267297988   0.7935000000000001  
C   2.32057793415584     1.7406222574097119   0.7935000000000001  
C   0.5169795089589899     2.3610783159887547   0.7935000000000001  
C   1.5708141546282823     2.2672884466686694   0.7935000000000001  
C   -0.23278427056856874     2.8877445052477104   0.7935000000000001  
C   0.8210503751007227     2.7939546359276233   0.7935000000000001  
C   -0.9825480500961274     3.414410694506667   0.7935000000000001  
C   0.07128659557316396     3.320620825186578   0.7935000000000001  
C   -0.6784771839543957     3.8472870144455347   0.7935000000000001  
C   -1.4282409634819544     4.373953203704488   0.7935000000000001  
C   2.68504643809285     -0.13156782632588973   0.7935000000000001  
C   3.738881083762141     -0.22535769564597768   0.7935000000000001  
C   1.93528265856529     0.39509836293306505   0.7935000000000001  
C   2.989117304234582     0.30130849361297707   0.7935000000000001  
C   1.1855188790377313     0.9217645521920198   0.7935000000000001  
C   2.2393535247070226     0.8279746828719328   0.7935000000000001  
C   0.4357550995101726     1.4484307414509765   0.7935000000000001  
C   1.489589745179463     1.3546408721308894   0.7935000000000001  
C   -0.3140086800173861     1.9750969307099313   0.7935000000000001  
C   0.7398259656519034     1.8813070613898442   0.7935000000000001  
C   -0.009937813875654327     2.4079732506488   0.7935000000000001  
C   -0.759701593403214     2.934639439907754   0.7935000000000001  
C   1.104294469588913     0.00911697765424175   0.7935000000000001  
C   2.1581291152582036     -0.08467289166584621   0.7935000000000001  
C   0.3545306900613534     0.5357831669131965   0.7935000000000001  
C   1.4083653357306438     0.4419932975931095   0.7935000000000001  
C   0.6586015562030861     0.9686594868520653   0.7935000000000001  
C   -0.09116222332447356     1.4953256761110219   0.7935000000000001  
C   0.5773771467542669     0.056011912314284325   0.7935000000000001  
C   0.27330628061253603     -0.3768644076245825   0.7935000000000001  
C   0.9418456506912765     -1.8161781714213163   0.7935000000000001  
C   0.19208187116371775     -1.2895119821623606   0.7935000000000001  
C   -0.5576819083638419     -0.7628457929034053   0.7935000000000001  
C   0.4961527373054495     -0.8566356622234929   0.7935000000000001  
C   -1.3074456878914025     -0.23617960364445006   0.7935000000000001  
C   -0.2536110422221101     -0.32996947296453805   0.7935000000000001  
C   0.8606212412424591     -2.7288257459590946   0.7935000000000001  
C   0.11085746171489759     -2.20215955670014   0.7935000000000001  
C   -0.6389063178126612     -1.6754933674411854   0.7935000000000001  
C   0.4149283278566312     -1.7692832367612723   0.7935000000000001  
C   -1.3886700973402217     -1.1488271781822301   0.7935000000000001  
C   -0.33483545167092843     -1.2426170475023166   0.7935000000000001  
C   -2.1384338768677775     -0.6221609889232743   0.7935000000000001  
C   -1.0845992311984889     -0.7159508582433604   0.7935000000000001  
C   -2.888197656395339     -0.09549479966431765   0.7935000000000001  
C   -1.8343630107260467     -0.18928466898440655   0.7935000000000001  
C   1.5291606113211986     -4.16813950975583   0.7935000000000001  
C   0.7793968317936398     -3.6414733204968743   0.7935000000000001  
C   0.029633052266078357     -3.1148071312379186   0.7935000000000001  
C   1.0834676979353717     -3.2085970005580067   0.7935000000000001  
C   -0.7201307272614794     -2.588140941978963   0.7935000000000001  
C   0.33370391840781105     -2.6819308112990505   0.7935000000000001  
C   -1.469894506789039     -2.061474752720008   0.7935000000000001  
C   -0.41605986111974763     -2.155264622040096   0.7935000000000001  
C   -2.219658286316597     -1.5348085634610533   0.7935000000000001  
C   -1.1658236406473081     -1.628598432781141   0.7935000000000001  
C   -2.9694220658441584     -1.0081423742020976   0.7935000000000001  
C   -1.915587420174866     -1.101932243522184   0.7935000000000001  
C   -3.719185845371716     -0.48147618494314187   0.7935000000000001  
C   -2.6653511997024255     -0.5752660542632303   0.7935000000000001  
C   -4.468949624899276     0.045190004315811945   0.7935000000000001  
C   -3.415114979229985     -0.04859986500427508   0.7935000000000001  
C   -0.05159135718273899     -4.027454705775698   0.7935000000000001  
C   1.0022432884865515     -4.121244575095785   0.7935000000000001  
C   -0.8013551367102968     -3.5007885165167423   0.7935000000000001  
C   0.2524795089589928     -3.5945783858368308   0.7935000000000001  
C   -1.5511189162378582     -2.974122327257787   0.7935000000000001  
C   -0.4972842705685669     -3.0679121965778746   0.7935000000000001  
C   -2.300882695765416     -2.447456137998831   0.7935000000000001  
C   -1.2470480500961256     -2.5412460073189194   0.7935000000000001  
C   -3.0506464752929756     -1.9207899487398765   0.7935000000000001  
C   -1.9968118296236834     -2.0145798180599646   0.7935000000000001  
C   -3.800410254820535     -1.3941237594809208   0.7935000000000001  
C   -2.746575609151245     -1.487913628801008   0.7935000000000001  
C   -4.550174034348093     -0.8674575702219652   0.7935000000000001  
C   -3.4963393886788046     -0.9612474395420527   0.7935000000000001  
C   -4.246103168206362     -0.43458125028309835   0.7935000000000001  
C   -4.995866947733922     0.09208493897585734   0.7935000000000001  
C   -0.8825795461591169     -4.413436091054522   0.7935000000000001  
C   -1.6323433256866755     -3.8867699017955655   0.7935000000000001  
C   -0.5785086800173842     -3.980559771115654   0.7935000000000001  
C   -2.382107105214235     -3.3601037125366116   0.7935000000000001  
C   -1.3282724595449429     -3.4538935818566987   0.7935000000000001  
C   -3.131870884741795     -2.833437523277655   0.7935000000000001  
C   -2.0780362390725027     -2.9272273925977434   0.7935000000000001  
C   -2.8278000186000622     -2.400561203338788   0.7935000000000001  
C   -3.577563798127622     -1.8738950140798327   0.7935000000000001  
C   -4.327327577655182     -1.3472288248208775   0.7935000000000001  
C   -2.463331514663053     -4.27275128707439   0.7935000000000001  
C   -1.4094968689937621     -4.366541156394478   0.7935000000000001  
C   -2.1592606485213235     -3.8398749671355215   0.7935000000000001  
C   -2.9090244280488813     -3.313208777876566   0.7935000000000001  
C   -1.7323118296236852     3.941076883765622   0.7935000000000001  
C   -2.482075609151245     4.46774307302458   0.7935000000000001  
C   -1.0637724595449447     2.501763119968888   0.7935000000000001  
C   -1.8135362390725045     3.0284293092278425   0.7935000000000001  
C   -2.563300018600064     3.5550954984867986   0.7935000000000001  
C   -1.5094653729307737     3.4613056291667097   0.7935000000000001  
C   -3.3130637981276236     4.081761687745754   0.7935000000000001  
C   -2.2592291524583312     3.9879718184256654   0.7935000000000001  
C   -4.062827577655182     4.608427877004708   0.7935000000000001  
C   -3.008992931985891     4.514638007684621   0.7935000000000001  
C   -0.39523308946620533     1.0624493561721513   0.7935000000000001  
C   -1.144996868993764     1.589115545431109   0.7935000000000001  
C   -1.8947606485213238     2.1157817346900636   0.7935000000000001  
C   -0.8409260028520313     2.0219918653699755   0.7935000000000001  
C   -2.644524428048883     2.6424479239490193   0.7935000000000001  
C   -1.590689782379591     2.5486580546289304   0.7935000000000001  
C   -3.394288207576439     3.169114113207975   0.7935000000000001  
C   -2.3404535619071507     3.075324243887886   0.7935000000000001  
C   -4.1440519871040005     3.6957803024669307   0.7935000000000001  
C   -3.0902173414347103     3.601990433146844   0.7935000000000001  
C   -4.89381576663156     4.222446491725885   0.7935000000000001  
C   -3.839981120962268     4.128656622405796   0.7935000000000001  
C   -4.58974490048983     4.655322811664753   0.7935000000000001  
C   -0.4764574989150236     0.14980178163437322   0.7935000000000001  
C   -1.2262212784425832     0.6764679708933299   0.7935000000000001  
C   -0.17238663277329183     0.582678101573242   0.7935000000000001  
C   -1.9759850579701428     1.2031341601522847   0.7935000000000001  
C   -0.9221504123008496     1.1093442908321967   0.7935000000000001  
C   -2.725748837497701     1.7298003494112404   0.7935000000000001  
C   -1.6719141918284102     1.6360104800911515   0.7935000000000001  
C   -3.4755126170252604     2.256466538670195   0.7935000000000001  
C   -2.4216779713559697     2.162676669350107   0.7935000000000001  
C   -4.22527639655282     2.78313272792915   0.7935000000000001  
C   -3.1714417508835275     2.6893428586090637   0.7935000000000001  
C   -4.9750401760803795     3.3097989171881057   0.7935000000000001  
C   -3.921205530411087     3.2160090478680186   0.7935000000000001  
C   -5.724803955607939     3.8364651064470614   0.7935000000000001  
C   -4.670969309938647     3.7426752371269743   0.7935000000000001  
C   -6.474567735135499     4.363131295706019   0.7935000000000001  
C   -5.420733089466206     4.269341426385928   0.7935000000000001  
C   -2.057209467418962     0.29048658561450563   0.7935000000000001  
C   -1.0033748217496699     0.19669671629441768   0.7935000000000001  
C   -2.80697324694652     0.8171527748734614   0.7935000000000001  
C   -1.7531386012772294     0.7233629055533725   0.7935000000000001  
C   -3.5567370264740776     1.3438189641324152   0.7935000000000001  
C   -2.502902380804789     1.2500290948123283   0.7935000000000001  
C   -4.306500806001639     1.8704851533913718   0.7935000000000001  
C   -3.252666160332347     1.776695284071284   0.7935000000000001  
C   -5.056264585529197     2.3971513426503277   0.7935000000000001  
C   -4.002429939859907     2.3033614733302397   0.7935000000000001  
C   -5.806028365056757     2.9238175319092834   0.7935000000000001  
C   -4.752193719387468     2.8300276625891945   0.7935000000000001  
C   -6.555792144584316     3.450483721168238   0.7935000000000001  
C   -5.501957498915026     3.35669385184815   0.7935000000000001  
C   -6.2517212784425835     3.883360041107105   0.7935000000000001  
C   -7.001485057970143     4.4100262303660624   0.7935000000000001  
C   -3.637961435922899     0.43117138959463713   0.7935000000000001  
C   -2.5841267902536065     0.3373815202745501   0.7935000000000001  
C   -4.387725215450458     0.9578375788535929   0.7935000000000001  
C   -3.333890569781166     0.8640477095335048   0.7935000000000001  
C   -5.137488994978016     1.4845037681125466   0.7935000000000001  
C   -4.083654349308726     1.3907138987924605   0.7935000000000001  
C   -5.887252774505575     2.011169957371503   0.7935000000000001  
C   -4.833418128836286     1.9173800880514174   0.7935000000000001  
C   -5.583181908363843     2.4440462773103713   0.7935000000000001  
C   -6.332945687891403     2.9707124665693256   0.7935000000000001  
C   -5.218713404426835     0.5718561935747686   0.7935000000000001  
C   -4.164878758757541     0.47806632425468065   0.7935000000000001  
C   -4.914642538285101     1.0047325135136354   0.7935000000000001  
C   -5.664406317812662     1.5313987027725922   0.7935000000000001  
C   2.8038492311984364     4.151906647758128   -0.7935000000000001  
C   3.5973492311984363     2.777524331952223   -0.7935000000000001  
C   2.803849231198438     3.235651770554191   -0.7935000000000001  
C   2.0103492311984366     3.693779209156159   -0.7935000000000001  
C   3.0683492311984364     3.693779209156159   -0.7935000000000001  
C   1.2168492311984365     4.151906647758127   -0.7935000000000001  
C   2.2748492311984365     4.151906647758127   -0.7935000000000001  
C   3.5973492311984367     1.8612694547482875   -0.7935000000000001  
C   2.8038492311984373     2.319396893350254   -0.7935000000000001  
C   2.0103492311984366     2.7775243319522214   -0.7935000000000001  
C   3.0683492311984364     2.777524331952223   -0.7935000000000001  
C   1.2168492311984365     3.235651770554191   -0.7935000000000001  
C   2.2748492311984374     3.235651770554191   -0.7935000000000001  
C   0.4233492311984363     3.693779209156159   -0.7935000000000001  
C   1.4813492311984364     3.693779209156159   -0.7935000000000001  
C   -0.3701507688015637     4.151906647758127   -0.7935000000000001  
C   0.6878492311984363     4.151906647758127   -0.7935000000000001  
C   4.3908492311984375     0.4868871389423823   -0.7935000000000001  
C   3.5973492311984363     0.9450145775443507   -0.7935000000000001  
C   2.8038492311984364     1.403142016146319   -0.7935000000000001  
C   3.861849231198437     1.403142016146319   -0.7935000000000001  
C   2.0103492311984366     1.8612694547482875   -0.7935000000000001  
C   3.0683492311984364     1.8612694547482875   -0.7935000000000001  
C   1.2168492311984365     2.319396893350255   -0.7935000000000001  
C   2.2748492311984374     2.319396893350255   -0.7935000000000001  
C   0.42334923119843726     2.7775243319522223   -0.7935000000000001  
C   1.4813492311984373     2.7775243319522214   -0.7935000000000001  
C   -0.3701507688015628     3.235651770554192   -0.7935000000000001  
C   0.6878492311984373     3.235651770554191   -0.7935000000000001  
C   -1.1636507688015638     3.6937792091561574   -0.7935000000000001  
C   -0.10565076880156368     3.693779209156159   -0.7935000000000001  
C   -1.9571507688015637     4.151906647758127   -0.7935000000000001  
C   -0.8991507688015637     4.151906647758128   -0.7935000000000001  
C   5.184349231198438     -0.8874951768635224   -0.7935000000000001  
C   4.3908492311984375     -0.42936773826155356   -0.7935000000000001  
C   3.5973492311984376     0.02875970034041485   -0.7935000000000001  
C   4.6553492311984375     0.02875970034041485   -0.7935000000000001  
C   2.803849231198438     0.4868871389423832   -0.7935000000000001  
C   3.8618492311984376     0.4868871389423832   -0.7935000000000001  
C   2.0103492311984374     0.9450145775443498   -0.7935000000000001  
C   3.0683492311984373     0.9450145775443507   -0.7935000000000001  
C   1.2168492311984365     1.4031420161463182   -0.7935000000000001  
C   2.2748492311984365     1.4031420161463182   -0.7935000000000001  
C   0.4233492311984363     1.8612694547482875   -0.7935000000000001  
C   1.4813492311984373     1.8612694547482866   -0.7935000000000001  
C   -0.3701507688015628     2.319396893350254   -0.7935000000000001  
C   0.6878492311984373     2.319396893350254   -0.7935000000000001  
C   -1.1636507688015638     2.7775243319522223   -0.7935000000000001  
C   -0.10565076880156275     2.777524331952223   -0.7935000000000001  
C   -1.957150768801562     3.235651770554191   -0.7935000000000001  
C   -0.8991507688015627     3.235651770554192   -0.7935000000000001  
C   -2.750650768801562     3.693779209156159   -0.7935000000000001  
C   -1.692650768801562     3.693779209156159   -0.7935000000000001  
C   -3.544150768801564     4.151906647758128   -0.7935000000000001  
C   -2.4861507688015636     4.151906647758127   -0.7935000000000001  
C   -4.337650768801562     4.610034086360096   -0.7935000000000001  
C   -3.279650768801562     4.610034086360096   -0.7935000000000001  
C   5.977849231198437     -2.2618774926694267   -0.7935000000000001  
C   5.184349231198438     -1.8037500540674587   -0.7935000000000001  
C   4.3908492311984375     -1.3456226154654902   -0.7935000000000001  
C   5.448849231198437     -1.3456226154654898   -0.7935000000000001  
C   3.597349231198438     -0.887495176863522   -0.7935000000000001  
C   4.6553492311984375     -0.887495176863522   -0.7935000000000001  
C   2.8038492311984373     -0.4293677382615545   -0.7935000000000001  
C   3.8618492311984385     -0.4293677382615545   -0.7935000000000001  
C   2.0103492311984374     0.02875970034041485   -0.7935000000000001  
C   3.068349231198438     0.02875970034041297   -0.7935000000000001  
C   1.2168492311984382     0.4868871389423832   -0.7935000000000001  
C   2.2748492311984365     0.4868871389423823   -0.7935000000000001  
C   0.42334923119843726     0.9450145775443498   -0.7935000000000001  
C   1.4813492311984364     0.9450145775443498   -0.7935000000000001  
C   -0.3701507688015628     1.4031420161463182   -0.7935000000000001  
C   0.6878492311984373     1.4031420161463182   -0.7935000000000001  
C   -1.1636507688015618     1.8612694547482855   -0.7935000000000001  
C   -0.10565076880156275     1.8612694547482855   -0.7935000000000001  
C   -1.957150768801562     2.319396893350255   -0.7935000000000001  
C   -0.8991507688015619     2.319396893350254   -0.7935000000000001  
C   -2.750650768801564     2.777524331952223   -0.7935000000000001  
C   -1.6926507688015637     2.777524331952223   -0.7935000000000001  
C   -3.544150768801564     3.235651770554191   -0.7935000000000001  
C   -2.4861507688015636     3.235651770554191   -0.7935000000000001  
C   -4.337650768801564     3.693779209156159   -0.7935000000000001  
C   -3.279650768801564     3.693779209156159   -0.7935000000000001  
C   -5.131150768801562     4.151906647758127   -0.7935000000000001  
C   -4.073150768801564     4.151906647758127   -0.7935000000000001  
C   -5.924650768801566     4.610034086360096   -0.7935000000000001  
C   -4.866650768801562     4.610034086360096   -0.7935000000000001  
C   6.771349231198438     -3.6362598084753306   -0.7935000000000001  
C   5.977849231198437     -3.178132369873363   -0.7935000000000001  
C   5.184349231198439     -2.720004931271395   -0.7935000000000001  
C   6.242349231198438     -2.7200049312713945   -0.7935000000000001  
C   4.3908492311984375     -2.2618774926694263   -0.7935000000000001  
C   5.448849231198437     -2.2618774926694267   -0.7935000000000001  
C   3.5973492311984376     -1.8037500540674587   -0.7935000000000001  
C   4.6553492311984375     -1.8037500540674583   -0.7935000000000001  
C   2.803849231198438     -1.3456226154654902   -0.7935000000000001  
C   3.8618492311984385     -1.3456226154654902   -0.7935000000000001  
C   2.0103492311984374     -0.8874951768635224   -0.7935000000000001  
C   3.068349231198438     -0.8874951768635224   -0.7935000000000001  
C   1.2168492311984374     -0.4293677382615545   -0.7935000000000001  
C   2.2748492311984374     -0.42936773826155356   -0.7935000000000001  
C   0.42334923119843726     0.02875970034041297   -0.7935000000000001  
C   1.4813492311984382     0.02875970034041391   -0.7935000000000001  
C   -0.37015076880156184     0.4868871389423814   -0.7935000000000001  
C   0.6878492311984373     0.4868871389423823   -0.7935000000000001  
C   -1.1636507688015618     0.9450145775443498   -0.7935000000000001  
C   -0.10565076880156368     0.9450145775443507   -0.7935000000000001  
C   -1.9571507688015637     1.4031420161463182   -0.7935000000000001  
C   -0.8991507688015637     1.403142016146319   -0.7935000000000001  
C   -2.750650768801562     1.8612694547482866   -0.7935000000000001  
C   -1.6926507688015637     1.8612694547482875   -0.7935000000000001  
C   -3.544150768801562     2.319396893350255   -0.7935000000000001  
C   -2.486150768801562     2.319396893350255   -0.7935000000000001  
C   -4.337650768801562     2.7775243319522223   -0.7935000000000001  
C   -3.279650768801564     2.7775243319522245   -0.7935000000000001  
C   -5.131150768801562     3.235651770554192   -0.7935000000000001  
C   -4.073150768801562     3.2356517705541896   -0.7935000000000001  
C   -5.924650768801562     3.6937792091561574   -0.7935000000000001  
C   -4.866650768801562     3.693779209156159   -0.7935000000000001  
C   -6.718150768801564     4.151906647758127   -0.7935000000000001  
C   -5.6601507688015635     4.151906647758127   -0.7935000000000001  
C   -6.4536507688015625     4.610034086360096   -0.7935000000000001  
C   6.771349231198439     -4.5525146856792675   -0.7935000000000001  
C   5.977849231198439     -4.094387247077299   -0.7935000000000001  
C   7.035849231198439     -4.094387247077298   -0.7935000000000001  
C   5.184349231198438     -3.636259808475331   -0.7935000000000001  
C   6.242349231198438     -3.6362598084753306   -0.7935000000000001  
C   4.390849231198438     -3.1781323698733623   -0.7935000000000001  
C   5.448849231198437     -3.178132369873363   -0.7935000000000001  
C   3.5973492311984385     -2.7200049312713945   -0.7935000000000001  
C   4.655349231198438     -2.720004931271395   -0.7935000000000001  
C   2.803849231198438     -2.2618774926694267   -0.7935000000000001  
C   3.861849231198438     -2.2618774926694263   -0.7935000000000001  
C   2.0103492311984374     -1.8037500540674583   -0.7935000000000001  
C   3.0683492311984373     -1.8037500540674578   -0.7935000000000001  
C   1.2168492311984374     -1.345622615465491   -0.7935000000000001  
C   2.2748492311984383     -1.345622615465491   -0.7935000000000001  
C   0.42334923119843726     -0.8874951768635224   -0.7935000000000001  
C   1.4813492311984373     -0.887495176863522   -0.7935000000000001  
C   -0.3701507688015628     -0.4293677382615545   -0.7935000000000001  
C   0.6878492311984382     -0.4293677382615545   -0.7935000000000001  
C   -1.1636507688015618     0.02875970034041391   -0.7935000000000001  
C   -0.10565076880156275     0.02875970034041391   -0.7935000000000001  
C   -1.957150768801562     0.4868871389423823   -0.7935000000000001  
C   -0.8991507688015637     0.4868871389423823   -0.7935000000000001  
C   -2.750650768801564     0.9450145775443498   -0.7935000000000001  
C   -1.692650768801562     0.9450145775443498   -0.7935000000000001  
C   -3.544150768801562     1.403142016146319   -0.7935000000000001  
C   -2.486150768801562     1.403142016146319   -0.7935000000000001  
C   -4.337650768801562     1.8612694547482875   -0.7935000000000001  
C   -3.279650768801564     1.8612694547482866   -0.7935000000000001  
C   -5.131150768801562     2.319396893350254   -0.7935000000000001  
C   -4.073150768801564     2.319396893350254   -0.7935000000000001  
C   -5.924650768801562     2.7775243319522223   -0.7935000000000001  
C   -4.866650768801564     2.777524331952223   -0.7935000000000001  
C   -5.660150768801562     3.2356517705541896   -0.7935000000000001  
C   -6.4536507688015625     3.6937792091561574   -0.7935000000000001  
C   5.184349231198439     -4.5525146856792675   -0.7935000000000001  
C   6.24234923119844     -4.5525146856792675   -0.7935000000000001  
C   4.3908492311984375     -4.094387247077298   -0.7935000000000001  
C   5.448849231198438     -4.094387247077299   -0.7935000000000001  
C   3.597349231198438     -3.6362598084753306   -0.7935000000000001  
C   4.655349231198438     -3.6362598084753315   -0.7935000000000001  
C   2.8038492311984373     -3.178132369873363   -0.7935000000000001  
C   3.8618492311984376     -3.178132369873363   -0.7935000000000001  
C   2.0103492311984374     -2.7200049312713945   -0.7935000000000001  
C   3.0683492311984373     -2.7200049312713945   -0.7935000000000001  
C   1.2168492311984374     -2.2618774926694267   -0.7935000000000001  
C   2.2748492311984383     -2.2618774926694263   -0.7935000000000001  
C   0.4233492311984382     -1.8037500540674587   -0.7935000000000001  
C   1.4813492311984382     -1.8037500540674583   -0.7935000000000001  
C   -0.37015076880156184     -1.3456226154654898   -0.7935000000000001  
C   0.6878492311984382     -1.3456226154654898   -0.7935000000000001  
C   -1.1636507688015618     -0.887495176863522   -0.7935000000000001  
C   -0.10565076880156181     -0.8874951768635229   -0.7935000000000001  
C   -1.957150768801562     -0.4293677382615545   -0.7935000000000001  
C   -0.8991507688015619     -0.4293677382615545   -0.7935000000000001  
C   -2.750650768801562     0.02875970034041391   -0.7935000000000001  
C   -1.692650768801562     0.02875970034041391   -0.7935000000000001  
C   -3.544150768801564     0.4868871389423823   -0.7935000000000001  
C   -2.486150768801562     0.4868871389423814   -0.7935000000000001  
C   -4.337650768801564     0.9450145775443488   -0.7935000000000001  
C   -3.279650768801562     0.9450145775443498   -0.7935000000000001  
C   -5.131150768801562     1.4031420161463182   -0.7935000000000001  
C   -4.073150768801562     1.4031420161463182   -0.7935000000000001  
C   -5.924650768801562     1.8612694547482855   -0.7935000000000001  
C   -4.866650768801562     1.8612694547482855   -0.7935000000000001  
C   -5.6601507688015635     2.319396893350254   -0.7935000000000001  
C   -6.4536507688015625     2.7775243319522214   -0.7935000000000001  
C   3.5973492311984385     -4.5525146856792675   -0.7935000000000001  
C   4.655349231198439     -4.5525146856792675   -0.7935000000000001  
C   2.803849231198438     -4.0943872470773   -0.7935000000000001  
C   3.8618492311984385     -4.094387247077299   -0.7935000000000001  
C   2.0103492311984383     -3.6362598084753315   -0.7935000000000001  
C   3.068349231198438     -3.636259808475331   -0.7935000000000001  
C   1.2168492311984382     -3.178132369873363   -0.7935000000000001  
C   2.2748492311984383     -3.1781323698733623   -0.7935000000000001  
C   0.4233492311984382     -2.720004931271395   -0.7935000000000001  
C   1.4813492311984382     -2.7200049312713954   -0.7935000000000001  
C   -0.3701507688015628     -2.2618774926694263   -0.7935000000000001  
C   0.6878492311984373     -2.2618774926694267   -0.7935000000000001  
C   -1.1636507688015618     -1.8037500540674578   -0.7935000000000001  
C   -0.10565076880156181     -1.8037500540674587   -0.7935000000000001  
C   -1.957150768801562     -1.345622615465491   -0.7935000000000001  
C   -0.8991507688015619     -1.3456226154654902   -0.7935000000000001  
C   -2.750650768801562     -0.8874951768635229   -0.7935000000000001  
C   -1.692650768801562     -0.8874951768635224   -0.7935000000000001  
C   -3.544150768801564     -0.4293677382615545   -0.7935000000000001  
C   -2.4861507688015636     -0.4293677382615545   -0.7935000000000001  
C   -4.337650768801562     0.02875970034041391   -0.7935000000000001  
C   -3.279650768801564     0.02875970034041391   -0.7935000000000001  
C   -5.131150768801562     0.4868871389423823   -0.7935000000000001  
C   -4.073150768801562     0.4868871389423823   -0.7935000000000001  
C   -4.866650768801564     0.9450145775443507   -0.7935000000000001  
C   -5.6601507688015635     1.4031420161463182   -0.7935000000000001  
C   2.0103492311984383     -4.5525146856792675   -0.7935000000000001  
C   3.068349231198438     -4.5525146856792675   -0.7935000000000001  
C   1.2168492311984391     -4.0943872470773   -0.7935000000000001  
C   2.274849231198439     -4.0943872470773   -0.7935000000000001  
C   0.4233492311984382     -3.636259808475331   -0.7935000000000001  
C   1.4813492311984382     -3.6362598084753315   -0.7935000000000001  
C   -0.3701507688015628     -3.178132369873363   -0.7935000000000001  
C   0.6878492311984373     -3.178132369873363   -0.7935000000000001  
C   -1.1636507688015618     -2.7200049312713954   -0.7935000000000001  
C   -0.10565076880156275     -2.7200049312713954   -0.7935000000000001  
C   -1.957150768801562     -2.2618774926694267   -0.7935000000000001  
C   -0.8991507688015627     -2.2618774926694263   -0.7935000000000001  
C   -2.750650768801562     -1.8037500540674587   -0.7935000000000001  
C   -1.692650768801562     -1.8037500540674587   -0.7935000000000001  
C   -3.544150768801562     -1.3456226154654902   -0.7935000000000001  
C   -2.4861507688015636     -1.345622615465491   -0.7935000000000001  
C   -4.337650768801564     -0.8874951768635229   -0.7935000000000001  
C   -3.279650768801562     -0.8874951768635229   -0.7935000000000001  
C   -4.073150768801562     -0.4293677382615545   -0.7935000000000001  
C   -4.866650768801562     0.02875970034041391   -0.7935000000000001  
C   -0.3701507688015628     -4.094387247077299   -0.7935000000000001  
C   0.6878492311984392     -4.0943872470773   -0.7935000000000001  
C   -1.1636507688015618     -3.6362598084753315   -0.7935000000000001  
C   -0.10565076880156275     -3.6362598084753315   -0.7935000000000001  
C   -1.957150768801562     -3.178132369873363   -0.7935000000000001  
C   -0.8991507688015619     -3.178132369873363   -0.7935000000000001  
C   -2.750650768801562     -2.720004931271395   -0.7935000000000001  
C   -1.692650768801562     -2.720004931271395   -0.7935000000000001  
C   -3.544150768801562     -2.2618774926694267   -0.7935000000000001  
C   -2.486150768801562     -2.261877492669427   -0.7935000000000001  
C   -3.279650768801562     -1.8037500540674587   -0.7935000000000001  
C   -4.073150768801562     -1.345622615465491   -0.7935000000000001  
C   -1.957150768801562     -4.0943872470773   -0.7935000000000001  
C   -0.8991507688015619     -4.094387247077299   -0.7935000000000001  
C   -2.750650768801562     -3.6362598084753315   -0.7935000000000001  
C   -1.692650768801562     -3.6362598084753315   -0.7935000000000001  
C   -2.486150768801562     -3.178132369873363   -0.7935000000000001  
C   -3.279650768801562     -2.720004931271395   -0.7935000000000001  
C   -2.486150768801562     -4.0943872470773   -0.7935000000000001  
