321
Generated with pygra
C   -4.231999999999995     -7.330039017631492   0.0  
C   -3.702999999999995     -7.330039017631491   0.0  
C   -4.496499999999996     -6.871911579029523   0.0  
C   -3.4384999999999946     -6.871911579029521   0.0  
C   -2.9094999999999964     -6.871911579029523   0.0  
C   -4.231999999999996     -6.413784140427553   0.0  
C   -3.702999999999996     -6.413784140427553   0.0  
C   -4.496499999999996     -5.955656701825586   0.0  
C   -2.6449999999999956     -6.413784140427553   0.0  
C   -2.115999999999995     -6.413784140427552   0.0  
C   -3.4384999999999954     -5.955656701825586   0.0  
C   -2.9094999999999955     -5.955656701825586   0.0  
C   -4.231999999999996     -5.497529263223618   0.0  
C   -3.7029999999999963     -5.497529263223619   0.0  
C   -4.496499999999997     -5.03940182462165   0.0  
C   -1.851499999999996     -5.9556567018255855   0.0  
C   -1.3224999999999958     -5.9556567018255855   0.0  
C   -2.644999999999996     -5.497529263223616   0.0  
C   -2.1159999999999957     -5.497529263223617   0.0  
C   -3.438499999999996     -5.039401824621649   0.0  
C   -2.9094999999999964     -5.039401824621649   0.0  
C   -4.231999999999996     -4.581274386019684   0.0  
C   -3.702999999999996     -4.581274386019685   0.0  
C   -4.4964999999999975     -4.123146947417714   0.0  
C   -1.0579999999999967     -5.497529263223616   0.0  
C   -0.5289999999999967     -5.497529263223616   0.0  
C   -1.8514999999999968     -5.039401824621647   0.0  
C   -1.3224999999999976     -5.039401824621647   0.0  
C   -2.644999999999998     -4.581274386019681   0.0  
C   -2.1159999999999974     -4.581274386019681   0.0  
C   -3.4384999999999972     -4.123146947417713   0.0  
C   -2.9094999999999973     -4.123146947417713   0.0  
C   -4.231999999999997     -3.6650195088157442   0.0  
C   -3.702999999999997     -3.6650195088157442   0.0  
C   -4.4964999999999975     -3.20689207021378   0.0  
C   -0.26449999999999674     -5.039401824621649   0.0  
C   0.2645000000000033     -5.039401824621649   0.0  
C   -1.0579999999999967     -4.581274386019682   0.0  
C   -0.5289999999999965     -4.581274386019682   0.0  
C   -1.851499999999997     -4.1231469474177125   0.0  
C   -1.3224999999999967     -4.1231469474177125   0.0  
C   -2.644999999999998     -3.6650195088157456   0.0  
C   -2.115999999999998     -3.6650195088157456   0.0  
C   -3.4384999999999972     -3.2068920702137786   0.0  
C   -2.9094999999999973     -3.2068920702137786   0.0  
C   -4.2319999999999975     -2.7487646316118095   0.0  
C   -3.7029999999999976     -2.74876463161181   0.0  
C   -4.496499999999998     -2.290637193009841   0.0  
C   0.5290000000000028     -4.581274386019681   0.0  
C   1.0580000000000032     -4.58127438601968   0.0  
C   -0.26449999999999724     -4.123146947417712   0.0  
C   0.26450000000000234     -4.123146947417712   0.0  
C   -1.0579999999999974     -3.665019508815744   0.0  
C   -0.5289999999999977     -3.6650195088157425   0.0  
C   -1.8514999999999977     -3.2068920702137786   0.0  
C   -1.3224999999999978     -3.2068920702137778   0.0  
C   -2.6449999999999982     -2.7487646316118086   0.0  
C   -2.115999999999998     -2.748764631611809   0.0  
C   -3.438499999999998     -2.2906371930098426   0.0  
C   -2.909499999999998     -2.290637193009842   0.0  
C   -4.231999999999998     -1.8325097544078757   0.0  
C   -3.7029999999999985     -1.8325097544078752   0.0  
C   -4.496499999999998     -1.3743823158059059   0.0  
C   1.3225000000000027     -4.12314694741771   0.0  
C   1.8515000000000024     -4.12314694741771   0.0  
C   0.5290000000000028     -3.6650195088157425   0.0  
C   1.0580000000000018     -3.6650195088157416   0.0  
C   -0.2644999999999977     -3.2068920702137755   0.0  
C   0.2645000000000017     -3.206892070213775   0.0  
C   -1.057999999999998     -2.7487646316118086   0.0  
C   -0.5289999999999984     -2.748764631611808   0.0  
C   -1.8514999999999984     -2.2906371930098395   0.0  
C   -1.3224999999999987     -2.290637193009839   0.0  
C   -2.6449999999999982     -1.8325097544078748   0.0  
C   -2.1159999999999983     -1.832509754407874   0.0  
C   -3.4384999999999994     -1.3743823158059059   0.0  
C   -2.909499999999999     -1.3743823158059056   0.0  
C   -4.231999999999998     -0.9162548772039371   0.0  
C   -3.7029999999999994     -0.9162548772039368   0.0  
C   -4.496499999999999     -0.45812743860197214   0.0  
C   2.1160000000000023     -3.665019508815743   0.0  
C   2.645000000000002     -3.6650195088157425   0.0  
C   1.3225000000000025     -3.206892070213776   0.0  
C   1.851500000000002     -3.206892070213776   0.0  
C   0.5290000000000016     -2.7487646316118073   0.0  
C   1.0580000000000016     -2.7487646316118064   0.0  
C   -0.2644999999999985     -2.29063719300984   0.0  
C   0.26450000000000157     -2.29063719300984   0.0  
C   -1.0579999999999987     -1.8325097544078737   0.0  
C   -0.5289999999999989     -1.8325097544078732   0.0  
C   -1.8514999999999986     -1.3743823158059048   0.0  
C   -1.3224999999999991     -1.3743823158059045   0.0  
C   -2.644999999999999     -0.916254877203936   0.0  
C   -2.115999999999999     -0.9162548772039356   0.0  
C   -3.4384999999999994     -0.45812743860197147   0.0  
C   -2.9094999999999995     -0.45812743860197097   0.0  
C   -4.231999999999999     -2.3587459434592902e-15   0.0  
C   -3.7030000000000003     -2.3587459434592902e-15   0.0  
C   -4.496499999999999     0.45812743860196625   0.0  
C   2.9095000000000018     -3.206892070213775   0.0  
C   3.4385000000000017     -3.2068920702137746   0.0  
C   2.116000000000002     -2.748764631611806   0.0  
C   2.6450000000000014     -2.7487646316118055   0.0  
C   1.322500000000001     -2.2906371930098373   0.0  
C   1.8515000000000015     -2.2906371930098373   0.0  
C   0.5290000000000009     -1.8325097544078723   0.0  
C   1.058000000000001     -1.8325097544078721   0.0  
C   -0.26449999999999907     -1.3743823158059036   0.0  
C   0.26450000000000107     -1.3743823158059036   0.0  
C   -1.0579999999999992     -0.9162548772039352   0.0  
C   -0.5289999999999994     -0.9162548772039347   0.0  
C   -1.8514999999999997     -0.45812743860197014   0.0  
C   -1.3224999999999996     -0.4581274386019697   0.0  
C   -2.645     -9.492067913951915e-16   0.0  
C   -2.1159999999999997     -8.317451953898499e-16   0.0  
C   -3.4385000000000003     0.4581274386019677   0.0  
C   -2.9095     0.4581274386019676   0.0  
C   -4.232     0.9162548772039325   0.0  
C   -3.7030000000000007     0.9162548772039328   0.0  
C   -4.4965     1.3743823158059016   0.0  
C   3.703000000000001     -2.7487646316118046   0.0  
C   4.232000000000001     -2.7487646316118046   0.0  
C   2.909500000000001     -2.2906371930098377   0.0  
C   3.438500000000001     -2.2906371930098377   0.0  
C   2.1160000000000005     -1.832509754407871   0.0  
C   2.6450000000000005     -1.8325097544078708   0.0  
C   1.3225000000000007     -1.3743823158059028   0.0  
C   1.8515000000000006     -1.3743823158059023   0.0  
C   0.5290000000000005     -0.916254877203934   0.0  
C   1.0580000000000005     -0.9162548772039336   0.0  
C   -0.2644999999999997     -0.4581274386019689   0.0  
C   0.26450000000000023     -0.45812743860196864   0.0  
C   -1.0579999999999998     -1.8570641736047126e-16   0.0  
C   -0.5289999999999999     1.6667837065555345e-16   0.0  
C   -1.8515000000000001     0.45812743860196853   0.0  
C   -1.3225000000000005     0.4581274386019689   0.0  
C   -2.645     0.9162548772039335   0.0  
C   -2.116     0.9162548772039337   0.0  
C   -3.438500000000001     1.374382315805902   0.0  
C   -2.9095000000000004     1.374382315805902   0.0  
C   -4.232000000000001     1.8325097544078712   0.0  
C   -3.7030000000000007     1.8325097544078714   0.0  
C   -4.4965     2.290637193009837   0.0  
C   4.4965     -2.290637193009835   0.0  
C   5.025500000000001     -2.290637193009834   0.0  
C   3.7030000000000007     -1.8325097544078703   0.0  
C   4.232     -1.8325097544078701   0.0  
C   2.909500000000001     -1.3743823158059016   0.0  
C   3.438500000000001     -1.3743823158059012   0.0  
C   2.116     -0.9162548772039331   0.0  
C   2.645000000000001     -0.9162548772039327   0.0  
C   1.3225     -0.4581274386019679   0.0  
C   1.8515000000000001     -0.45812743860196764   0.0  
C   0.529     8.12717148684932e-16   0.0  
C   1.0579999999999998     1.2238327347036276e-15   0.0  
C   -0.26450000000000023     0.45812743860196964   0.0  
C   0.2644999999999996     0.4581274386019698   0.0  
C   -1.0580000000000005     0.9162548772039344   0.0  
C   -0.5290000000000005     0.916254877203935   0.0  
C   -1.8515000000000006     1.374382315805903   0.0  
C   -1.322500000000001     1.3743823158059039   0.0  
C   -2.6450000000000005     1.832509754407872   0.0  
C   -2.116000000000001     1.832509754407872   0.0  
C   -3.4385000000000012     2.290637193009837   0.0  
C   -2.909500000000001     2.2906371930098373   0.0  
C   -4.232000000000001     2.7487646316118055   0.0  
C   -3.703000000000002     2.748764631611806   0.0  
C   -4.496500000000002     3.2068920702137746   0.0  
C   5.29     -1.8325097544078697   0.0  
C   5.819     -1.832509754407868   0.0  
C   4.4965     -1.3743823158059012   0.0  
C   5.0255     -1.3743823158059003   0.0  
C   3.7030000000000003     -0.9162548772039318   0.0  
C   4.232     -0.9162548772039314   0.0  
C   2.9094999999999995     -0.45812743860196664   0.0  
C   3.4385     -0.45812743860196653   0.0  
C   2.116     1.7524099167276646e-15   0.0  
C   2.644999999999999     2.1047947047436892e-15   0.0  
C   1.3224999999999996     0.45812743860197064   0.0  
C   1.8514999999999997     0.4581274386019711   0.0  
C   0.5289999999999994     0.9162548772039356   0.0  
C   1.0579999999999992     0.9162548772039357   0.0  
C   -0.26450000000000096     1.3743823158059043   0.0  
C   0.26449999999999896     1.3743823158059045   0.0  
C   -1.058000000000001     1.8325097544078728   0.0  
C   -0.5290000000000009     1.8325097544078732   0.0  
C   -1.8515000000000013     2.2906371930098377   0.0  
C   -1.3225000000000018     2.290637193009838   0.0  
C   -2.645000000000002     2.7487646316118073   0.0  
C   -2.1160000000000014     2.7487646316118073   0.0  
C   -3.4385000000000017     3.206892070213775   0.0  
C   -2.9095000000000018     3.206892070213775   0.0  
C   -4.232000000000003     3.6650195088157407   0.0  
C   -3.703000000000001     3.6650195088157407   0.0  
C   -4.496500000000002     4.123146947417709   0.0  
C   6.0835     -1.374382315805899   0.0  
C   6.612500000000001     -1.3743823158058996   0.0  
C   5.29     -0.9162548772039307   0.0  
C   5.819     -0.9162548772039304   0.0  
C   4.496499999999999     -0.45812743860196625   0.0  
C   5.0255     -0.4581274386019658   0.0  
C   3.7029999999999994     2.809564280775739e-15   0.0  
C   4.231999999999999     3.044487472786422e-15   0.0  
C   2.909499999999999     0.4581274386019717   0.0  
C   3.4384999999999994     0.4581274386019719   0.0  
C   2.1159999999999988     0.9162548772039364   0.0  
C   2.644999999999999     0.916254877203937   0.0  
C   1.3224999999999991     1.3743823158059052   0.0  
C   1.8514999999999986     1.3743823158059056   0.0  
C   0.5289999999999987     1.8325097544078743   0.0  
C   1.0579999999999985     1.8325097544078741   0.0  
C   -0.2645000000000014     2.2906371930098386   0.0  
C   0.26449999999999846     2.2906371930098395   0.0  
C   -1.0580000000000018     2.748764631611808   0.0  
C   -0.5290000000000019     2.748764631611808   0.0  
C   -1.851500000000002     3.206892070213776   0.0  
C   -1.3225000000000018     3.206892070213777   0.0  
C   -2.6450000000000027     3.6650195088157425   0.0  
C   -2.1160000000000023     3.6650195088157425   0.0  
C   -3.438500000000002     4.123146947417706   0.0  
C   -2.909500000000003     4.123146947417707   0.0  
C   -4.232000000000003     4.581274386019678   0.0  
C   -3.703000000000002     4.581274386019678   0.0  
C   -4.496500000000004     5.039401824621644   0.0  
C   6.877     -0.91625487720393   0.0  
C   7.406     -0.9162548772039285   0.0  
C   6.083499999999999     -0.45812743860196486   0.0  
C   6.612499999999998     -0.4581274386019635   0.0  
C   5.289999999999999     3.514333856807788e-15   0.0  
C   5.819     3.984180240829154e-15   0.0  
C   4.496499999999999     0.45812743860197264   0.0  
C   5.025499999999999     0.4581274386019731   0.0  
C   3.7029999999999994     0.9162548772039377   0.0  
C   4.231999999999998     0.9162548772039382   0.0  
C   2.9094999999999986     1.374382315805906   0.0  
C   3.438499999999998     1.3743823158059065   0.0  
C   2.1159999999999983     1.8325097544078754   0.0  
C   2.6449999999999982     1.8325097544078752   0.0  
C   1.3224999999999982     2.29063719300984   0.0  
C   1.851499999999998     2.2906371930098404   0.0  
C   0.528999999999998     2.7487646316118086   0.0  
C   1.0579999999999978     2.748764631611809   0.0  
C   -0.2645000000000021     3.2068920702137778   0.0  
C   0.2644999999999976     3.2068920702137773   0.0  
C   -1.0580000000000027     3.6650195088157425   0.0  
C   -0.5290000000000026     3.6650195088157433   0.0  
C   -1.851500000000002     4.123146947417711   0.0  
C   -1.3225000000000027     4.123146947417712   0.0  
C   -2.645000000000003     4.58127438601968   0.0  
C   -2.1160000000000028     4.58127438601968   0.0  
C   -3.4385000000000034     5.039401824621644   0.0  
C   -2.9095000000000026     5.0394018246216445   0.0  
C   -4.232000000000003     5.497529263223613   0.0  
C   -3.703000000000003     5.497529263223613   0.0  
C   -4.496500000000004     5.955656701825583   0.0  
C   7.6705     -0.4581274386019644   0.0  
C   8.199499999999999     -0.458127438601963   0.0  
C   6.877     5.3937193928932536e-15   0.0  
C   7.405999999999999     5.3937193928932536e-15   0.0  
C   6.083499999999998     0.4581274386019733   0.0  
C   6.6125     0.45812743860197425   0.0  
C   5.289999999999999     0.916254877203938   0.0  
C   5.818999999999998     0.9162548772039403   0.0  
C   4.496499999999999     1.3743823158059074   0.0  
C   5.025499999999999     1.3743823158059074   0.0  
C   3.702999999999999     1.8325097544078768   0.0  
C   4.231999999999998     1.8325097544078768   0.0  
C   2.9094999999999986     2.2906371930098417   0.0  
C   3.4384999999999972     2.290637193009841   0.0  
C   2.115999999999998     2.74876463161181   0.0  
C   2.644999999999998     2.74876463161181   0.0  
C   1.3224999999999978     3.206892070213778   0.0  
C   1.8514999999999975     3.206892070213778   0.0  
C   0.5289999999999977     3.6650195088157433   0.0  
C   1.0579999999999976     3.665019508815744   0.0  
C   -0.26450000000000284     4.1231469474177125   0.0  
C   0.2644999999999969     4.123146947417712   0.0  
C   -1.0580000000000032     4.581274386019681   0.0  
C   -0.5290000000000028     4.581274386019681   0.0  
C   -1.8515000000000041     5.039401824621645   0.0  
C   -1.322500000000003     5.039401824621646   0.0  
C   -2.645000000000004     5.497529263223615   0.0  
C   -2.1160000000000028     5.497529263223615   0.0  
C   -3.4385000000000043     5.955656701825584   0.0  
C   -2.909500000000003     5.955656701825583   0.0  
C   -4.232000000000004     6.413784140427548   0.0  
C   -3.703000000000004     6.413784140427548   0.0  
C   -4.496500000000004     6.8719115790295175   0.0  
C   8.463999999999999     5.3937193928932536e-15   0.0  
C   7.6705     0.45812743860197425   0.0  
C   8.199499999999999     0.45812743860197475   0.0  
C   6.876999999999999     0.9162548772039394   0.0  
C   7.405999999999999     0.9162548772039408   0.0  
C   6.083499999999998     1.3743823158059083   0.0  
C   6.612499999999998     1.3743823158059083   0.0  
C   5.289999999999998     1.8325097544078772   0.0  
C   5.818999999999998     1.8325097544078783   0.0  
C   4.496499999999998     2.290637193009842   0.0  
C   5.025499999999998     2.290637193009844   0.0  
C   3.702999999999997     2.748764631611811   0.0  
C   4.2319999999999975     2.7487646316118113   0.0  
C   2.9094999999999973     3.2068920702137795   0.0  
C   3.4384999999999977     3.20689207021378   0.0  
C   2.115999999999997     3.6650195088157447   0.0  
C   2.6449999999999974     3.6650195088157447   0.0  
C   1.3224999999999973     4.123146947417713   0.0  
C   1.8514999999999973     4.123146947417713   0.0  
C   0.5289999999999965     4.581274386019682   0.0  
C   1.0579999999999972     4.581274386019682   0.0  
C   -0.26450000000000284     5.039401824621646   0.0  
C   0.26449999999999646     5.039401824621647   0.0  
C   -1.0580000000000038     5.497529263223611   0.0  
C   -0.5290000000000038     5.497529263223612   0.0  
C   -1.851500000000004     5.955656701825585   0.0  
C   -1.3225000000000038     5.955656701825585   0.0  
C   -2.6450000000000045     6.41378414042755   0.0  
C   -2.116000000000003     6.41378414042755   0.0  
C   -3.4385000000000043     6.871911579029514   0.0  
C   -2.9095000000000035     6.871911579029514   0.0  
C   -4.232000000000004     7.330039017631486   0.0  
C   -3.703000000000004     7.330039017631487   0.0  
