8
Generated with pygra
C   0.21820136756114902     -0.2699541820692294   1.1461666666666668  
C   -0.031171623937306832     0.16197250924153758   0.9698333333333337  
C   -0.031171623937306832     0.16197250924153758   0.4408333333333334  
C   -0.28054461543576276     -0.2699541820692295   0.26449999999999996  
C   -0.28054461543576276     0.5938992005523046   -0.2645  
C   0.21820136756114888     -0.2699541820692295   -0.44083333333333335  
C   0.21820136756114883     -0.2699541820692295   -0.9698333333333335  
C   -0.031171623937307068     0.16197250924153758   -1.1461666666666674  
