72
Generated with pygra
C   -0.2645     -2.29063719300984   0.0  
C   0.2645     -2.29063719300984   0.0  
C   -1.058     -1.8325097544078721   0.0  
C   -0.529     -1.8325097544078721   0.0  
C   -1.8515000000000001     -1.374382315805904   0.0  
C   -1.3225     -1.374382315805904   0.0  
C   -2.645     -0.9162548772039358   0.0  
C   -2.116     -0.9162548772039358   0.0  
C   -3.4385000000000003     -0.4581274386019679   0.0  
C   -2.9095     -0.4581274386019679   0.0  
C   -4.232     2.6102576890075902e-17   0.0  
C   -3.7030000000000003     2.6102576890075902e-17   0.0  
C   0.529     -1.8325097544078721   0.0  
C   1.058     -1.8325097544078721   0.0  
C   -0.2645     -1.374382315805904   0.0  
C   0.2645     -1.374382315805904   0.0  
C   -1.058     -0.9162548772039358   0.0  
C   -0.529     -0.9162548772039358   0.0  
C   -1.8515000000000001     -0.4581274386019679   0.0  
C   -1.3225     -0.4581274386019679   0.0  
C   -2.645     2.6102576890075902e-17   0.0  
C   -2.116     2.6102576890075902e-17   0.0  
C   -3.4385000000000003     0.4581274386019679   0.0  
C   -2.9095     0.4581274386019679   0.0  
C   1.3225     -1.374382315805904   0.0  
C   1.8515000000000001     -1.374382315805904   0.0  
C   0.529     -0.9162548772039358   0.0  
C   1.058     -0.9162548772039358   0.0  
C   -0.2645     -0.4581274386019679   0.0  
C   0.2645     -0.4581274386019679   0.0  
C   -1.058     2.6102576890075902e-17   0.0  
C   -0.529     2.6102576890075902e-17   0.0  
C   -1.8515000000000001     0.4581274386019684   0.0  
C   -1.3225     0.4581274386019684   0.0  
C   -2.645     0.9162548772039358   0.0  
C   -2.116     0.9162548772039358   0.0  
C   2.116     -0.9162548772039358   0.0  
C   2.645     -0.9162548772039358   0.0  
C   1.3225     -0.4581274386019679   0.0  
C   1.8515000000000001     -0.4581274386019679   0.0  
C   0.529     2.6102576890075902e-17   0.0  
C   1.058     2.6102576890075902e-17   0.0  
C   -0.2645     0.4581274386019684   0.0  
C   0.2645     0.4581274386019684   0.0  
C   -1.058     0.9162548772039363   0.0  
C   -0.529     0.9162548772039363   0.0  
C   -1.8515000000000001     1.3743823158059043   0.0  
C   -1.3225     1.3743823158059043   0.0  
C   2.9095     -0.4581274386019679   0.0  
C   3.4385000000000003     -0.4581274386019679   0.0  
C   2.116     2.6102576890075902e-17   0.0  
C   2.645     2.6102576890075902e-17   0.0  
C   1.3225     0.4581274386019684   0.0  
C   1.8515000000000001     0.4581274386019684   0.0  
C   0.529     0.9162548772039363   0.0  
C   1.058     0.9162548772039363   0.0  
C   -0.2645     1.3743823158059043   0.0  
C   0.2645     1.3743823158059043   0.0  
C   -1.058     1.8325097544078721   0.0  
C   -0.529     1.8325097544078721   0.0  
C   3.7030000000000003     2.6102576890075902e-17   0.0  
C   4.232     2.6102576890075902e-17   0.0  
C   2.9095     0.4581274386019679   0.0  
C   3.4385000000000003     0.4581274386019679   0.0  
C   2.116     0.9162548772039358   0.0  
C   2.645     0.9162548772039358   0.0  
C   1.3225     1.3743823158059043   0.0  
C   1.8515000000000001     1.3743823158059043   0.0  
C   0.529     1.8325097544078721   0.0  
C   1.058     1.8325097544078721   0.0  
C   -0.2645     2.29063719300984   0.0  
C   0.2645     2.29063719300984   0.0  
